
---------- Begin Simulation Statistics ----------
sim_seconds                                  0.003720                       # Number of seconds simulated
sim_ticks                                  3720388500                       # Number of ticks simulated
final_tick                                 3720388500                       # Number of ticks from beginning of simulation (restored from checkpoints and never reset)
sim_freq                                 1000000000000                       # Frequency of simulated ticks
host_inst_rate                                 293329                       # Simulator instruction rate (inst/s)
host_op_rate                                   293329                       # Simulator op (including micro ops) rate (op/s)
host_tick_rate                              218259581                       # Simulator tick rate (ticks/s)
host_mem_usage                                 637024                       # Number of bytes of host memory used
host_seconds                                    17.05                       # Real time elapsed on the host
sim_insts                                     5000002                       # Number of instructions simulated
sim_ops                                       5000002                       # Number of ops (including micro ops) simulated
system.voltage_domain.voltage                       1                       # Voltage in Volts
system.clk_domain.clock                           500                       # Clock period in ticks
system.mem_ctrls.bytes_read::cpu.inst           97600                       # Number of bytes read from this memory
system.mem_ctrls.bytes_read::cpu.data          249984                       # Number of bytes read from this memory
system.mem_ctrls.bytes_read::total             347584                       # Number of bytes read from this memory
system.mem_ctrls.bytes_inst_read::cpu.inst        97600                       # Number of instructions bytes read from this memory
system.mem_ctrls.bytes_inst_read::total         97600                       # Number of instructions bytes read from this memory
system.mem_ctrls.bytes_written::writebacks        97216                       # Number of bytes written to this memory
system.mem_ctrls.bytes_written::total           97216                       # Number of bytes written to this memory
system.mem_ctrls.num_reads::cpu.inst             1525                       # Number of read requests responded to by this memory
system.mem_ctrls.num_reads::cpu.data             3906                       # Number of read requests responded to by this memory
system.mem_ctrls.num_reads::total                5431                       # Number of read requests responded to by this memory
system.mem_ctrls.num_writes::writebacks          1519                       # Number of write requests responded to by this memory
system.mem_ctrls.num_writes::total               1519                       # Number of write requests responded to by this memory
system.mem_ctrls.bw_read::cpu.inst           26233819                       # Total read bandwidth from this memory (bytes/s)
system.mem_ctrls.bw_read::cpu.data           67192983                       # Total read bandwidth from this memory (bytes/s)
system.mem_ctrls.bw_read::total              93426802                       # Total read bandwidth from this memory (bytes/s)
system.mem_ctrls.bw_inst_read::cpu.inst      26233819                       # Instruction read bandwidth from this memory (bytes/s)
system.mem_ctrls.bw_inst_read::total         26233819                       # Instruction read bandwidth from this memory (bytes/s)
system.mem_ctrls.bw_write::writebacks        26130604                       # Write bandwidth from this memory (bytes/s)
system.mem_ctrls.bw_write::total             26130604                       # Write bandwidth from this memory (bytes/s)
system.mem_ctrls.bw_total::writebacks        26130604                       # Total bandwidth to/from this memory (bytes/s)
system.mem_ctrls.bw_total::cpu.inst          26233819                       # Total bandwidth to/from this memory (bytes/s)
system.mem_ctrls.bw_total::cpu.data          67192983                       # Total bandwidth to/from this memory (bytes/s)
system.mem_ctrls.bw_total::total            119557406                       # Total bandwidth to/from this memory (bytes/s)
system.mem_ctrls.readReqs                        5431                       # Number of read requests accepted
system.mem_ctrls.writeReqs                       1519                       # Number of write requests accepted
system.mem_ctrls.readBursts                      5431                       # Number of DRAM read bursts, including those serviced by the write queue
system.mem_ctrls.writeBursts                     1519                       # Number of DRAM write bursts, including those merged in the write queue
system.mem_ctrls.bytesReadDRAM                 347520                       # Total number of bytes read from DRAM
system.mem_ctrls.bytesReadWrQ                      64                       # Total number of bytes read from write queue
system.mem_ctrls.bytesWritten                   95232                       # Total number of bytes written to DRAM
system.mem_ctrls.bytesReadSys                  347584                       # Total read bytes from the system interface side
system.mem_ctrls.bytesWrittenSys                97216                       # Total written bytes from the system interface side
system.mem_ctrls.servicedByWrQ                      1                       # Number of DRAM read bursts serviced by the write queue
system.mem_ctrls.mergedWrBursts                     0                       # Number of DRAM write bursts merged with an existing one
system.mem_ctrls.neitherReadNorWriteReqs            0                       # Number of requests that are neither read nor write
system.mem_ctrls.perBankRdBursts::0               374                       # Per bank write bursts
system.mem_ctrls.perBankRdBursts::1               353                       # Per bank write bursts
system.mem_ctrls.perBankRdBursts::2               245                       # Per bank write bursts
system.mem_ctrls.perBankRdBursts::3               264                       # Per bank write bursts
system.mem_ctrls.perBankRdBursts::4               364                       # Per bank write bursts
system.mem_ctrls.perBankRdBursts::5               286                       # Per bank write bursts
system.mem_ctrls.perBankRdBursts::6               274                       # Per bank write bursts
system.mem_ctrls.perBankRdBursts::7               239                       # Per bank write bursts
system.mem_ctrls.perBankRdBursts::8               350                       # Per bank write bursts
system.mem_ctrls.perBankRdBursts::9               383                       # Per bank write bursts
system.mem_ctrls.perBankRdBursts::10              287                       # Per bank write bursts
system.mem_ctrls.perBankRdBursts::11              406                       # Per bank write bursts
system.mem_ctrls.perBankRdBursts::12              252                       # Per bank write bursts
system.mem_ctrls.perBankRdBursts::13              419                       # Per bank write bursts
system.mem_ctrls.perBankRdBursts::14              537                       # Per bank write bursts
system.mem_ctrls.perBankRdBursts::15              397                       # Per bank write bursts
system.mem_ctrls.perBankWrBursts::0                91                       # Per bank write bursts
system.mem_ctrls.perBankWrBursts::1                41                       # Per bank write bursts
system.mem_ctrls.perBankWrBursts::2               123                       # Per bank write bursts
system.mem_ctrls.perBankWrBursts::3               130                       # Per bank write bursts
system.mem_ctrls.perBankWrBursts::4               111                       # Per bank write bursts
system.mem_ctrls.perBankWrBursts::5                68                       # Per bank write bursts
system.mem_ctrls.perBankWrBursts::6                74                       # Per bank write bursts
system.mem_ctrls.perBankWrBursts::7                64                       # Per bank write bursts
system.mem_ctrls.perBankWrBursts::8               112                       # Per bank write bursts
system.mem_ctrls.perBankWrBursts::9               161                       # Per bank write bursts
system.mem_ctrls.perBankWrBursts::10               63                       # Per bank write bursts
system.mem_ctrls.perBankWrBursts::11              130                       # Per bank write bursts
system.mem_ctrls.perBankWrBursts::12               70                       # Per bank write bursts
system.mem_ctrls.perBankWrBursts::13               88                       # Per bank write bursts
system.mem_ctrls.perBankWrBursts::14               93                       # Per bank write bursts
system.mem_ctrls.perBankWrBursts::15               69                       # Per bank write bursts
system.mem_ctrls.numRdRetry                         0                       # Number of times read queue was full causing retry
system.mem_ctrls.numWrRetry                         0                       # Number of times write queue was full causing retry
system.mem_ctrls.totGap                    3719232000                       # Total gap between requests
system.mem_ctrls.readPktSize::0                     0                       # Read request sizes (log2)
system.mem_ctrls.readPktSize::1                     0                       # Read request sizes (log2)
system.mem_ctrls.readPktSize::2                     0                       # Read request sizes (log2)
system.mem_ctrls.readPktSize::3                     0                       # Read request sizes (log2)
system.mem_ctrls.readPktSize::4                     0                       # Read request sizes (log2)
system.mem_ctrls.readPktSize::5                     0                       # Read request sizes (log2)
system.mem_ctrls.readPktSize::6                  5431                       # Read request sizes (log2)
system.mem_ctrls.writePktSize::0                    0                       # Write request sizes (log2)
system.mem_ctrls.writePktSize::1                    0                       # Write request sizes (log2)
system.mem_ctrls.writePktSize::2                    0                       # Write request sizes (log2)
system.mem_ctrls.writePktSize::3                    0                       # Write request sizes (log2)
system.mem_ctrls.writePktSize::4                    0                       # Write request sizes (log2)
system.mem_ctrls.writePktSize::5                    0                       # Write request sizes (log2)
system.mem_ctrls.writePktSize::6                 1519                       # Write request sizes (log2)
system.mem_ctrls.rdQLenPdf::0                    3691                       # What read queue length does an incoming req see
system.mem_ctrls.rdQLenPdf::1                    1092                       # What read queue length does an incoming req see
system.mem_ctrls.rdQLenPdf::2                     433                       # What read queue length does an incoming req see
system.mem_ctrls.rdQLenPdf::3                     200                       # What read queue length does an incoming req see
system.mem_ctrls.rdQLenPdf::4                      14                       # What read queue length does an incoming req see
system.mem_ctrls.rdQLenPdf::5                       0                       # What read queue length does an incoming req see
system.mem_ctrls.rdQLenPdf::6                       0                       # What read queue length does an incoming req see
system.mem_ctrls.rdQLenPdf::7                       0                       # What read queue length does an incoming req see
system.mem_ctrls.rdQLenPdf::8                       0                       # What read queue length does an incoming req see
system.mem_ctrls.rdQLenPdf::9                       0                       # What read queue length does an incoming req see
system.mem_ctrls.rdQLenPdf::10                      0                       # What read queue length does an incoming req see
system.mem_ctrls.rdQLenPdf::11                      0                       # What read queue length does an incoming req see
system.mem_ctrls.rdQLenPdf::12                      0                       # What read queue length does an incoming req see
system.mem_ctrls.rdQLenPdf::13                      0                       # What read queue length does an incoming req see
system.mem_ctrls.rdQLenPdf::14                      0                       # What read queue length does an incoming req see
system.mem_ctrls.rdQLenPdf::15                      0                       # What read queue length does an incoming req see
system.mem_ctrls.rdQLenPdf::16                      0                       # What read queue length does an incoming req see
system.mem_ctrls.rdQLenPdf::17                      0                       # What read queue length does an incoming req see
system.mem_ctrls.rdQLenPdf::18                      0                       # What read queue length does an incoming req see
system.mem_ctrls.rdQLenPdf::19                      0                       # What read queue length does an incoming req see
system.mem_ctrls.rdQLenPdf::20                      0                       # What read queue length does an incoming req see
system.mem_ctrls.rdQLenPdf::21                      0                       # What read queue length does an incoming req see
system.mem_ctrls.rdQLenPdf::22                      0                       # What read queue length does an incoming req see
system.mem_ctrls.rdQLenPdf::23                      0                       # What read queue length does an incoming req see
system.mem_ctrls.rdQLenPdf::24                      0                       # What read queue length does an incoming req see
system.mem_ctrls.rdQLenPdf::25                      0                       # What read queue length does an incoming req see
system.mem_ctrls.rdQLenPdf::26                      0                       # What read queue length does an incoming req see
system.mem_ctrls.rdQLenPdf::27                      0                       # What read queue length does an incoming req see
system.mem_ctrls.rdQLenPdf::28                      0                       # What read queue length does an incoming req see
system.mem_ctrls.rdQLenPdf::29                      0                       # What read queue length does an incoming req see
system.mem_ctrls.rdQLenPdf::30                      0                       # What read queue length does an incoming req see
system.mem_ctrls.rdQLenPdf::31                      0                       # What read queue length does an incoming req see
system.mem_ctrls.wrQLenPdf::0                       1                       # What write queue length does an incoming req see
system.mem_ctrls.wrQLenPdf::1                       1                       # What write queue length does an incoming req see
system.mem_ctrls.wrQLenPdf::2                       1                       # What write queue length does an incoming req see
system.mem_ctrls.wrQLenPdf::3                       1                       # What write queue length does an incoming req see
system.mem_ctrls.wrQLenPdf::4                       1                       # What write queue length does an incoming req see
system.mem_ctrls.wrQLenPdf::5                       1                       # What write queue length does an incoming req see
system.mem_ctrls.wrQLenPdf::6                       1                       # What write queue length does an incoming req see
system.mem_ctrls.wrQLenPdf::7                       1                       # What write queue length does an incoming req see
system.mem_ctrls.wrQLenPdf::8                       1                       # What write queue length does an incoming req see
system.mem_ctrls.wrQLenPdf::9                       1                       # What write queue length does an incoming req see
system.mem_ctrls.wrQLenPdf::10                      1                       # What write queue length does an incoming req see
system.mem_ctrls.wrQLenPdf::11                      1                       # What write queue length does an incoming req see
system.mem_ctrls.wrQLenPdf::12                      1                       # What write queue length does an incoming req see
system.mem_ctrls.wrQLenPdf::13                      1                       # What write queue length does an incoming req see
system.mem_ctrls.wrQLenPdf::14                      1                       # What write queue length does an incoming req see
system.mem_ctrls.wrQLenPdf::15                     41                       # What write queue length does an incoming req see
system.mem_ctrls.wrQLenPdf::16                     44                       # What write queue length does an incoming req see
system.mem_ctrls.wrQLenPdf::17                     69                       # What write queue length does an incoming req see
system.mem_ctrls.wrQLenPdf::18                     83                       # What write queue length does an incoming req see
system.mem_ctrls.wrQLenPdf::19                     89                       # What write queue length does an incoming req see
system.mem_ctrls.wrQLenPdf::20                     91                       # What write queue length does an incoming req see
system.mem_ctrls.wrQLenPdf::21                     92                       # What write queue length does an incoming req see
system.mem_ctrls.wrQLenPdf::22                     89                       # What write queue length does an incoming req see
system.mem_ctrls.wrQLenPdf::23                     88                       # What write queue length does an incoming req see
system.mem_ctrls.wrQLenPdf::24                     90                       # What write queue length does an incoming req see
system.mem_ctrls.wrQLenPdf::25                     96                       # What write queue length does an incoming req see
system.mem_ctrls.wrQLenPdf::26                     94                       # What write queue length does an incoming req see
system.mem_ctrls.wrQLenPdf::27                     95                       # What write queue length does an incoming req see
system.mem_ctrls.wrQLenPdf::28                     90                       # What write queue length does an incoming req see
system.mem_ctrls.wrQLenPdf::29                     90                       # What write queue length does an incoming req see
system.mem_ctrls.wrQLenPdf::30                     88                       # What write queue length does an incoming req see
system.mem_ctrls.wrQLenPdf::31                     88                       # What write queue length does an incoming req see
system.mem_ctrls.wrQLenPdf::32                     87                       # What write queue length does an incoming req see
system.mem_ctrls.wrQLenPdf::33                      0                       # What write queue length does an incoming req see
system.mem_ctrls.wrQLenPdf::34                      0                       # What write queue length does an incoming req see
system.mem_ctrls.wrQLenPdf::35                      0                       # What write queue length does an incoming req see
system.mem_ctrls.wrQLenPdf::36                      0                       # What write queue length does an incoming req see
system.mem_ctrls.wrQLenPdf::37                      0                       # What write queue length does an incoming req see
system.mem_ctrls.wrQLenPdf::38                      0                       # What write queue length does an incoming req see
system.mem_ctrls.wrQLenPdf::39                      0                       # What write queue length does an incoming req see
system.mem_ctrls.wrQLenPdf::40                      0                       # What write queue length does an incoming req see
system.mem_ctrls.wrQLenPdf::41                      0                       # What write queue length does an incoming req see
system.mem_ctrls.wrQLenPdf::42                      0                       # What write queue length does an incoming req see
system.mem_ctrls.wrQLenPdf::43                      0                       # What write queue length does an incoming req see
system.mem_ctrls.wrQLenPdf::44                      0                       # What write queue length does an incoming req see
system.mem_ctrls.wrQLenPdf::45                      0                       # What write queue length does an incoming req see
system.mem_ctrls.wrQLenPdf::46                      0                       # What write queue length does an incoming req see
system.mem_ctrls.wrQLenPdf::47                      0                       # What write queue length does an incoming req see
system.mem_ctrls.wrQLenPdf::48                      0                       # What write queue length does an incoming req see
system.mem_ctrls.wrQLenPdf::49                      0                       # What write queue length does an incoming req see
system.mem_ctrls.wrQLenPdf::50                      0                       # What write queue length does an incoming req see
system.mem_ctrls.wrQLenPdf::51                      0                       # What write queue length does an incoming req see
system.mem_ctrls.wrQLenPdf::52                      0                       # What write queue length does an incoming req see
system.mem_ctrls.wrQLenPdf::53                      0                       # What write queue length does an incoming req see
system.mem_ctrls.wrQLenPdf::54                      0                       # What write queue length does an incoming req see
system.mem_ctrls.wrQLenPdf::55                      0                       # What write queue length does an incoming req see
system.mem_ctrls.wrQLenPdf::56                      0                       # What write queue length does an incoming req see
system.mem_ctrls.wrQLenPdf::57                      0                       # What write queue length does an incoming req see
system.mem_ctrls.wrQLenPdf::58                      0                       # What write queue length does an incoming req see
system.mem_ctrls.wrQLenPdf::59                      0                       # What write queue length does an incoming req see
system.mem_ctrls.wrQLenPdf::60                      0                       # What write queue length does an incoming req see
system.mem_ctrls.wrQLenPdf::61                      0                       # What write queue length does an incoming req see
system.mem_ctrls.wrQLenPdf::62                      0                       # What write queue length does an incoming req see
system.mem_ctrls.wrQLenPdf::63                      0                       # What write queue length does an incoming req see
system.mem_ctrls.bytesPerActivate::samples         1664                       # Bytes accessed per row activation
system.mem_ctrls.bytesPerActivate::mean    265.961538                       # Bytes accessed per row activation
system.mem_ctrls.bytesPerActivate::gmean   187.434147                       # Bytes accessed per row activation
system.mem_ctrls.bytesPerActivate::stdev   253.363146                       # Bytes accessed per row activation
system.mem_ctrls.bytesPerActivate::0-127          420     25.24%     25.24% # Bytes accessed per row activation
system.mem_ctrls.bytesPerActivate::128-255          546     32.81%     58.05% # Bytes accessed per row activation
system.mem_ctrls.bytesPerActivate::256-383          394     23.68%     81.73% # Bytes accessed per row activation
system.mem_ctrls.bytesPerActivate::384-511           82      4.93%     86.66% # Bytes accessed per row activation
system.mem_ctrls.bytesPerActivate::512-639           53      3.19%     89.84% # Bytes accessed per row activation
system.mem_ctrls.bytesPerActivate::640-767           26      1.56%     91.41% # Bytes accessed per row activation
system.mem_ctrls.bytesPerActivate::768-895           21      1.26%     92.67% # Bytes accessed per row activation
system.mem_ctrls.bytesPerActivate::896-1023           20      1.20%     93.87% # Bytes accessed per row activation
system.mem_ctrls.bytesPerActivate::1024-1151          102      6.13%    100.00% # Bytes accessed per row activation
system.mem_ctrls.bytesPerActivate::total         1664                       # Bytes accessed per row activation
system.mem_ctrls.rdPerTurnAround::samples           87                       # Reads before turning the bus around for writes
system.mem_ctrls.rdPerTurnAround::mean      61.482759                       # Reads before turning the bus around for writes
system.mem_ctrls.rdPerTurnAround::gmean     36.357821                       # Reads before turning the bus around for writes
system.mem_ctrls.rdPerTurnAround::stdev    204.586131                       # Reads before turning the bus around for writes
system.mem_ctrls.rdPerTurnAround::0-63             78     89.66%     89.66% # Reads before turning the bus around for writes
system.mem_ctrls.rdPerTurnAround::64-127            6      6.90%     96.55% # Reads before turning the bus around for writes
system.mem_ctrls.rdPerTurnAround::128-191            2      2.30%     98.85% # Reads before turning the bus around for writes
system.mem_ctrls.rdPerTurnAround::1920-1983            1      1.15%    100.00% # Reads before turning the bus around for writes
system.mem_ctrls.rdPerTurnAround::total            87                       # Reads before turning the bus around for writes
system.mem_ctrls.wrPerTurnAround::samples           87                       # Writes before turning the bus around for reads
system.mem_ctrls.wrPerTurnAround::mean      17.103448                       # Writes before turning the bus around for reads
system.mem_ctrls.wrPerTurnAround::gmean     17.066224                       # Writes before turning the bus around for reads
system.mem_ctrls.wrPerTurnAround::stdev      1.141546                       # Writes before turning the bus around for reads
system.mem_ctrls.wrPerTurnAround::16               42     48.28%     48.28% # Writes before turning the bus around for reads
system.mem_ctrls.wrPerTurnAround::17                3      3.45%     51.72% # Writes before turning the bus around for reads
system.mem_ctrls.wrPerTurnAround::18               34     39.08%     90.80% # Writes before turning the bus around for reads
system.mem_ctrls.wrPerTurnAround::19                7      8.05%     98.85% # Writes before turning the bus around for reads
system.mem_ctrls.wrPerTurnAround::20                1      1.15%    100.00% # Writes before turning the bus around for reads
system.mem_ctrls.wrPerTurnAround::total            87                       # Writes before turning the bus around for reads
system.mem_ctrls.totQLat                     58427500                       # Total ticks spent queuing
system.mem_ctrls.totMemAccLat               160240000                       # Total ticks spent from burst creation until serviced by the DRAM
system.mem_ctrls.totBusLat                   27150000                       # Total ticks spent in databus transfers
system.mem_ctrls.avgQLat                     10760.13                       # Average queueing delay per DRAM burst
system.mem_ctrls.avgBusLat                    5000.00                       # Average bus latency per DRAM burst
system.mem_ctrls.avgMemAccLat                29510.13                       # Average memory access latency per DRAM burst
system.mem_ctrls.avgRdBW                        93.41                       # Average DRAM read bandwidth in MiByte/s
system.mem_ctrls.avgWrBW                        25.60                       # Average achieved write bandwidth in MiByte/s
system.mem_ctrls.avgRdBWSys                     93.43                       # Average system read bandwidth in MiByte/s
system.mem_ctrls.avgWrBWSys                     26.13                       # Average system write bandwidth in MiByte/s
system.mem_ctrls.peakBW                      12800.00                       # Theoretical peak bandwidth in MiByte/s
system.mem_ctrls.busUtil                         0.93                       # Data bus utilization in percentage
system.mem_ctrls.busUtilRead                     0.73                       # Data bus utilization in percentage for reads
system.mem_ctrls.busUtilWrite                    0.20                       # Data bus utilization in percentage for writes
system.mem_ctrls.avgRdQLen                       1.07                       # Average read queue length when enqueuing
system.mem_ctrls.avgWrQLen                      23.55                       # Average write queue length when enqueuing
system.mem_ctrls.readRowHits                     4207                       # Number of row buffer hits during reads
system.mem_ctrls.writeRowHits                    1046                       # Number of row buffer hits during writes
system.mem_ctrls.readRowHitRate                 77.48                       # Row buffer hit rate for reads
system.mem_ctrls.writeRowHitRate                68.86                       # Row buffer hit rate for writes
system.mem_ctrls.avgGap                     535141.29                       # Average gap between requests
system.mem_ctrls.pageHitRate                    75.59                       # Row buffer hit rate, read and write combined
system.mem_ctrls_0.actEnergy                  5564160                       # Energy for activate commands per rank (pJ)
system.mem_ctrls_0.preEnergy                  3036000                       # Energy for precharge commands per rank (pJ)
system.mem_ctrls_0.readEnergy                18688800                       # Energy for read commands per rank (pJ)
system.mem_ctrls_0.writeEnergy                4548960                       # Energy for write commands per rank (pJ)
system.mem_ctrls_0.refreshEnergy            242583120                       # Energy for refresh commands per rank (pJ)
system.mem_ctrls_0.actBackEnergy            997027470                       # Energy for active background per rank (pJ)
system.mem_ctrls_0.preBackEnergy           1353995250                       # Energy for precharge background per rank (pJ)
system.mem_ctrls_0.totalEnergy             2625443760                       # Total energy per rank (pJ)
system.mem_ctrls_0.averagePower            706.847287                       # Core power per rank (mW)
system.mem_ctrls_0.memoryStateTime::IDLE   2247490000                       # Time in different power states
system.mem_ctrls_0.memoryStateTime::REF     124020000                       # Time in different power states
system.mem_ctrls_0.memoryStateTime::PRE_PDN            0                       # Time in different power states
system.mem_ctrls_0.memoryStateTime::ACT    1343392500                       # Time in different power states
system.mem_ctrls_0.memoryStateTime::ACT_PDN            0                       # Time in different power states
system.mem_ctrls_1.actEnergy                  7015680                       # Energy for activate commands per rank (pJ)
system.mem_ctrls_1.preEnergy                  3828000                       # Energy for precharge commands per rank (pJ)
system.mem_ctrls_1.readEnergy                23641800                       # Energy for read commands per rank (pJ)
system.mem_ctrls_1.writeEnergy                5093280                       # Energy for write commands per rank (pJ)
system.mem_ctrls_1.refreshEnergy            242583120                       # Energy for refresh commands per rank (pJ)
system.mem_ctrls_1.actBackEnergy           1589044860                       # Energy for active background per rank (pJ)
system.mem_ctrls_1.preBackEnergy            834673500                       # Energy for precharge background per rank (pJ)
system.mem_ctrls_1.totalEnergy             2705880240                       # Total energy per rank (pJ)
system.mem_ctrls_1.averagePower            728.505868                       # Core power per rank (mW)
system.mem_ctrls_1.memoryStateTime::IDLE   1379717000                       # Time in different power states
system.mem_ctrls_1.memoryStateTime::REF     124020000                       # Time in different power states
system.mem_ctrls_1.memoryStateTime::PRE_PDN            0                       # Time in different power states
system.mem_ctrls_1.memoryStateTime::ACT    2210564250                       # Time in different power states
system.mem_ctrls_1.memoryStateTime::ACT_PDN            0                       # Time in different power states
system.cpu.branchPred.lookups                  260689                       # Number of BP lookups
system.cpu.branchPred.condPredicted             45556                       # Number of conditional branches predicted
system.cpu.branchPred.condIncorrect              2539                       # Number of conditional branches incorrect
system.cpu.branchPred.BTBLookups               148670                       # Number of BTB lookups
system.cpu.branchPred.BTBHits                  142981                       # Number of BTB hits
system.cpu.branchPred.BTBCorrect                    0                       # Number of correct BTB predictions (this stat may not work properly.
system.cpu.branchPred.BTBHitPct             96.173404                       # BTB Hit Percentage
system.cpu.branchPred.usedRAS                  106284                       # Number of times the RAS was used to get a target.
system.cpu.branchPred.RASInCorrect                 14                       # Number of incorrect RAS predictions.
system.cpu_voltage_domain.voltage                   1                       # Voltage in Volts
system.cpu_clk_domain.clock                       500                       # Clock period in ticks
system.cpu.dtb.fetch_hits                           0                       # ITB hits
system.cpu.dtb.fetch_misses                         0                       # ITB misses
system.cpu.dtb.fetch_acv                            0                       # ITB acv
system.cpu.dtb.fetch_accesses                       0                       # ITB accesses
system.cpu.dtb.read_hits                       471934                       # DTB read hits
system.cpu.dtb.read_misses                        116                       # DTB read misses
system.cpu.dtb.read_acv                             1                       # DTB read access violations
system.cpu.dtb.read_accesses                   472050                       # DTB read accesses
system.cpu.dtb.write_hits                       56941                       # DTB write hits
system.cpu.dtb.write_misses                       163                       # DTB write misses
system.cpu.dtb.write_acv                            0                       # DTB write access violations
system.cpu.dtb.write_accesses                   57104                       # DTB write accesses
system.cpu.dtb.data_hits                       528875                       # DTB hits
system.cpu.dtb.data_misses                        279                       # DTB misses
system.cpu.dtb.data_acv                             1                       # DTB access violations
system.cpu.dtb.data_accesses                   529154                       # DTB accesses
system.cpu.itb.fetch_hits                      615698                       # ITB hits
system.cpu.itb.fetch_misses                       125                       # ITB misses
system.cpu.itb.fetch_acv                            0                       # ITB acv
system.cpu.itb.fetch_accesses                  615823                       # ITB accesses
system.cpu.itb.read_hits                            0                       # DTB read hits
system.cpu.itb.read_misses                          0                       # DTB read misses
system.cpu.itb.read_acv                             0                       # DTB read access violations
system.cpu.itb.read_accesses                        0                       # DTB read accesses
system.cpu.itb.write_hits                           0                       # DTB write hits
system.cpu.itb.write_misses                         0                       # DTB write misses
system.cpu.itb.write_acv                            0                       # DTB write access violations
system.cpu.itb.write_accesses                       0                       # DTB write accesses
system.cpu.itb.data_hits                            0                       # DTB hits
system.cpu.itb.data_misses                          0                       # DTB misses
system.cpu.itb.data_acv                             0                       # DTB access violations
system.cpu.itb.data_accesses                        0                       # DTB accesses
system.cpu.workload.num_syscalls                   59                       # Number of system calls
system.cpu.numCycles                          7440778                       # number of cpu cycles simulated
system.cpu.numWorkItemsStarted                      0                       # number of work items this cpu started
system.cpu.numWorkItemsCompleted                    0                       # number of work items this cpu completed
system.cpu.fetch.icacheStallCycles             824128                       # Number of cycles fetch is stalled on an Icache miss
system.cpu.fetch.Insts                        5051685                       # Number of instructions fetch has processed
system.cpu.fetch.Branches                      260689                       # Number of branches that fetch encountered
system.cpu.fetch.predictedBranches             249265                       # Number of branches that fetch has predicted taken
system.cpu.fetch.Cycles                       6443969                       # Number of cycles fetch has run and was not squashing or blocked
system.cpu.fetch.SquashCycles                    5472                       # Number of cycles fetch has spent squashing
system.cpu.fetch.MiscStallCycles                   76                       # Number of cycles fetch has spent waiting on interrupts, or bad addresses, or out of MSHRs
system.cpu.fetch.PendingTrapStallCycles          4563                       # Number of stall cycles due to pending traps
system.cpu.fetch.CacheLines                    615698                       # Number of cache lines fetched
system.cpu.fetch.IcacheSquashes                  2175                       # Number of outstanding Icache misses that were squashed
system.cpu.fetch.rateDist::samples            7275472                       # Number of instructions fetched each cycle (Total)
system.cpu.fetch.rateDist::mean              0.694345                       # Number of instructions fetched each cycle (Total)
system.cpu.fetch.rateDist::stdev             1.895719                       # Number of instructions fetched each cycle (Total)
system.cpu.fetch.rateDist::underflows               0      0.00%      0.00% # Number of instructions fetched each cycle (Total)
system.cpu.fetch.rateDist::0                  6210291     85.36%     85.36% # Number of instructions fetched each cycle (Total)
system.cpu.fetch.rateDist::1                     3862      0.05%     85.41% # Number of instructions fetched each cycle (Total)
system.cpu.fetch.rateDist::2                   290499      3.99%     89.41% # Number of instructions fetched each cycle (Total)
system.cpu.fetch.rateDist::3                     2917      0.04%     89.45% # Number of instructions fetched each cycle (Total)
system.cpu.fetch.rateDist::4                   362801      4.99%     94.43% # Number of instructions fetched each cycle (Total)
system.cpu.fetch.rateDist::5                     2626      0.04%     94.47% # Number of instructions fetched each cycle (Total)
system.cpu.fetch.rateDist::6                   111906      1.54%     96.01% # Number of instructions fetched each cycle (Total)
system.cpu.fetch.rateDist::7                     2256      0.03%     96.04% # Number of instructions fetched each cycle (Total)
system.cpu.fetch.rateDist::8                   288314      3.96%    100.00% # Number of instructions fetched each cycle (Total)
system.cpu.fetch.rateDist::overflows                0      0.00%    100.00% # Number of instructions fetched each cycle (Total)
system.cpu.fetch.rateDist::min_value                0                       # Number of instructions fetched each cycle (Total)
system.cpu.fetch.rateDist::max_value                8                       # Number of instructions fetched each cycle (Total)
system.cpu.fetch.rateDist::total              7275472                       # Number of instructions fetched each cycle (Total)
system.cpu.fetch.branchRate                  0.035035                       # Number of branch fetches per cycle
system.cpu.fetch.rate                        0.678919                       # Number of inst fetches per cycle
system.cpu.decode.IdleCycles                   407125                       # Number of cycles decode is idle
system.cpu.decode.BlockedCycles               6224838                       # Number of cycles decode is blocked
system.cpu.decode.RunCycles                     35082                       # Number of cycles decode is running
system.cpu.decode.UnblockCycles                606535                       # Number of cycles decode is unblocking
system.cpu.decode.SquashCycles                   1892                       # Number of cycles decode is squashing
system.cpu.decode.BranchResolved               107685                       # Number of times decode resolved a branch
system.cpu.decode.BranchMispred                   851                       # Number of times decode detected a branch misprediction
system.cpu.decode.DecodedInsts                5040614                       # Number of instructions handled by decode
system.cpu.decode.SquashedInsts                  3335                       # Number of squashed instructions handled by decode
system.cpu.rename.SquashCycles                   1892                       # Number of cycles rename is squashing
system.cpu.rename.IdleCycles                   510648                       # Number of cycles rename is idle
system.cpu.rename.BlockCycles                 3092885                       # Number of cycles rename is blocking
system.cpu.rename.serializeStallCycles          17115                       # count of cycles rename stalled for serializing inst
system.cpu.rename.RunCycles                    417135                       # Number of cycles rename is running
system.cpu.rename.UnblockCycles               3235797                       # Number of cycles rename is unblocking
system.cpu.rename.RenamedInsts                5038173                       # Number of instructions processed by rename
system.cpu.rename.ROBFullEvents                   711                       # Number of times rename has blocked due to ROB full
system.cpu.rename.IQFullEvents                3066873                       # Number of times rename has blocked due to IQ full
system.cpu.rename.LQFullEvents                    481                       # Number of times rename has blocked due to LQ full
system.cpu.rename.SQFullEvents                  46639                       # Number of times rename has blocked due to SQ full
system.cpu.rename.RenamedOperands             4810982                       # Number of destination operands rename has renamed
system.cpu.rename.RenameLookups               7272017                       # Number of register rename lookups that rename has made
system.cpu.rename.int_rename_lookups          1034180                       # Number of integer rename lookups
system.cpu.rename.fp_rename_lookups           6237756                       # Number of floating rename lookups
system.cpu.rename.CommittedMaps               4794249                       # Number of HB maps that are committed
system.cpu.rename.UndoneMaps                    16632                       # Number of HB maps that are undone due to squashing
system.cpu.rename.serializingInsts                475                       # count of serializing insts renamed
system.cpu.rename.tempSerializingInsts            378                       # count of temporary serializing insts renamed
system.cpu.rename.skidInsts                   4146918                       # count of insts added to the skid buffer
system.cpu.memDep0.insertedLoads               468068                       # Number of loads inserted to the mem dependence unit.
system.cpu.memDep0.insertedStores               58088                       # Number of stores inserted to the mem dependence unit.
system.cpu.memDep0.conflictingLoads              1612                       # Number of conflicting loads.
system.cpu.memDep0.conflictingStores              555                       # Number of conflicting stores.
system.cpu.iq.iqInstsAdded                    5019397                       # Number of instructions added to the IQ (excludes non-spec)
system.cpu.iq.iqNonSpecInstsAdded                 689                       # Number of non-speculative instructions added to the IQ
system.cpu.iq.iqInstsIssued                   5020153                       # Number of instructions issued
system.cpu.iq.iqSquashedInstsIssued               158                       # Number of squashed instructions issued
system.cpu.iq.iqSquashedInstsExamined           19990                       # Number of squashed instructions iterated over during squash; mainly for profiling
system.cpu.iq.iqSquashedOperandsExamined         8933                       # Number of squashed operands that are examined and possibly removed from graph
system.cpu.iq.iqSquashedNonSpecRemoved             48                       # Number of squashed non-spec instructions that were removed
system.cpu.iq.issued_per_cycle::samples       7275472                       # Number of insts issued each cycle
system.cpu.iq.issued_per_cycle::mean         0.690011                       # Number of insts issued each cycle
system.cpu.iq.issued_per_cycle::stdev        0.800245                       # Number of insts issued each cycle
system.cpu.iq.issued_per_cycle::underflows            0      0.00%      0.00% # Number of insts issued each cycle
system.cpu.iq.issued_per_cycle::0             3438993     47.27%     47.27% # Number of insts issued each cycle
system.cpu.iq.issued_per_cycle::1             2931936     40.30%     87.57% # Number of insts issued each cycle
system.cpu.iq.issued_per_cycle::2              676465      9.30%     96.87% # Number of insts issued each cycle
system.cpu.iq.issued_per_cycle::3              202440      2.78%     99.65% # Number of insts issued each cycle
system.cpu.iq.issued_per_cycle::4                8706      0.12%     99.77% # Number of insts issued each cycle
system.cpu.iq.issued_per_cycle::5               11459      0.16%     99.92% # Number of insts issued each cycle
system.cpu.iq.issued_per_cycle::6                3179      0.04%     99.97% # Number of insts issued each cycle
system.cpu.iq.issued_per_cycle::7                1578      0.02%     99.99% # Number of insts issued each cycle
system.cpu.iq.issued_per_cycle::8                 716      0.01%    100.00% # Number of insts issued each cycle
system.cpu.iq.issued_per_cycle::overflows            0      0.00%    100.00% # Number of insts issued each cycle
system.cpu.iq.issued_per_cycle::min_value            0                       # Number of insts issued each cycle
system.cpu.iq.issued_per_cycle::max_value            8                       # Number of insts issued each cycle
system.cpu.iq.issued_per_cycle::total         7275472                       # Number of insts issued each cycle
system.cpu.iq.fu_full::No_OpClass                   0      0.00%      0.00% # attempts to use FU when none available
system.cpu.iq.fu_full::IntAlu                     172      0.70%      0.70% # attempts to use FU when none available
system.cpu.iq.fu_full::IntMult                      0      0.00%      0.70% # attempts to use FU when none available
system.cpu.iq.fu_full::IntDiv                       0      0.00%      0.70% # attempts to use FU when none available
system.cpu.iq.fu_full::FloatAdd                     0      0.00%      0.70% # attempts to use FU when none available
system.cpu.iq.fu_full::FloatCmp                     0      0.00%      0.70% # attempts to use FU when none available
system.cpu.iq.fu_full::FloatCvt                     0      0.00%      0.70% # attempts to use FU when none available
system.cpu.iq.fu_full::FloatMult                19100     77.99%     78.69% # attempts to use FU when none available
system.cpu.iq.fu_full::FloatDiv                     0      0.00%     78.69% # attempts to use FU when none available
system.cpu.iq.fu_full::FloatSqrt                    0      0.00%     78.69% # attempts to use FU when none available
system.cpu.iq.fu_full::SimdAdd                      0      0.00%     78.69% # attempts to use FU when none available
system.cpu.iq.fu_full::SimdAddAcc                   0      0.00%     78.69% # attempts to use FU when none available
system.cpu.iq.fu_full::SimdAlu                      0      0.00%     78.69% # attempts to use FU when none available
system.cpu.iq.fu_full::SimdCmp                      0      0.00%     78.69% # attempts to use FU when none available
system.cpu.iq.fu_full::SimdCvt                      0      0.00%     78.69% # attempts to use FU when none available
system.cpu.iq.fu_full::SimdMisc                     0      0.00%     78.69% # attempts to use FU when none available
system.cpu.iq.fu_full::SimdMult                     0      0.00%     78.69% # attempts to use FU when none available
system.cpu.iq.fu_full::SimdMultAcc                  0      0.00%     78.69% # attempts to use FU when none available
system.cpu.iq.fu_full::SimdShift                    0      0.00%     78.69% # attempts to use FU when none available
system.cpu.iq.fu_full::SimdShiftAcc                 0      0.00%     78.69% # attempts to use FU when none available
system.cpu.iq.fu_full::SimdSqrt                     0      0.00%     78.69% # attempts to use FU when none available
system.cpu.iq.fu_full::SimdFloatAdd                 0      0.00%     78.69% # attempts to use FU when none available
system.cpu.iq.fu_full::SimdFloatAlu                 0      0.00%     78.69% # attempts to use FU when none available
system.cpu.iq.fu_full::SimdFloatCmp                 0      0.00%     78.69% # attempts to use FU when none available
system.cpu.iq.fu_full::SimdFloatCvt                 0      0.00%     78.69% # attempts to use FU when none available
system.cpu.iq.fu_full::SimdFloatDiv                 0      0.00%     78.69% # attempts to use FU when none available
system.cpu.iq.fu_full::SimdFloatMisc                0      0.00%     78.69% # attempts to use FU when none available
system.cpu.iq.fu_full::SimdFloatMult                0      0.00%     78.69% # attempts to use FU when none available
system.cpu.iq.fu_full::SimdFloatMultAcc             0      0.00%     78.69% # attempts to use FU when none available
system.cpu.iq.fu_full::SimdFloatSqrt                0      0.00%     78.69% # attempts to use FU when none available
system.cpu.iq.fu_full::MemRead                   3109     12.69%     91.38% # attempts to use FU when none available
system.cpu.iq.fu_full::MemWrite                  2110      8.62%    100.00% # attempts to use FU when none available
system.cpu.iq.fu_full::IprAccess                    0      0.00%    100.00% # attempts to use FU when none available
system.cpu.iq.fu_full::InstPrefetch                 0      0.00%    100.00% # attempts to use FU when none available
system.cpu.iq.FU_type_0::No_OpClass                 0      0.00%      0.00% # Type of FU issued
system.cpu.iq.FU_type_0::IntAlu                519078     10.34%     10.34% # Type of FU issued
system.cpu.iq.FU_type_0::IntMult                  142      0.00%     10.34% # Type of FU issued
system.cpu.iq.FU_type_0::IntDiv                     0      0.00%     10.34% # Type of FU issued
system.cpu.iq.FU_type_0::FloatAdd             2647404     52.74%     63.08% # Type of FU issued
system.cpu.iq.FU_type_0::FloatCmp                   8      0.00%     63.08% # Type of FU issued
system.cpu.iq.FU_type_0::FloatCvt                   0      0.00%     63.08% # Type of FU issued
system.cpu.iq.FU_type_0::FloatMult            1323541     26.36%     89.44% # Type of FU issued
system.cpu.iq.FU_type_0::FloatDiv                   0      0.00%     89.44% # Type of FU issued
system.cpu.iq.FU_type_0::FloatSqrt                  0      0.00%     89.44% # Type of FU issued
system.cpu.iq.FU_type_0::SimdAdd                    0      0.00%     89.44% # Type of FU issued
system.cpu.iq.FU_type_0::SimdAddAcc                 0      0.00%     89.44% # Type of FU issued
system.cpu.iq.FU_type_0::SimdAlu                    0      0.00%     89.44% # Type of FU issued
system.cpu.iq.FU_type_0::SimdCmp                    0      0.00%     89.44% # Type of FU issued
system.cpu.iq.FU_type_0::SimdCvt                    0      0.00%     89.44% # Type of FU issued
system.cpu.iq.FU_type_0::SimdMisc                   0      0.00%     89.44% # Type of FU issued
system.cpu.iq.FU_type_0::SimdMult                   0      0.00%     89.44% # Type of FU issued
system.cpu.iq.FU_type_0::SimdMultAcc                0      0.00%     89.44% # Type of FU issued
system.cpu.iq.FU_type_0::SimdShift                  0      0.00%     89.44% # Type of FU issued
system.cpu.iq.FU_type_0::SimdShiftAcc               0      0.00%     89.44% # Type of FU issued
system.cpu.iq.FU_type_0::SimdSqrt                   0      0.00%     89.44% # Type of FU issued
system.cpu.iq.FU_type_0::SimdFloatAdd               0      0.00%     89.44% # Type of FU issued
system.cpu.iq.FU_type_0::SimdFloatAlu               0      0.00%     89.44% # Type of FU issued
system.cpu.iq.FU_type_0::SimdFloatCmp               0      0.00%     89.44% # Type of FU issued
system.cpu.iq.FU_type_0::SimdFloatCvt               0      0.00%     89.44% # Type of FU issued
system.cpu.iq.FU_type_0::SimdFloatDiv               0      0.00%     89.44% # Type of FU issued
system.cpu.iq.FU_type_0::SimdFloatMisc              0      0.00%     89.44% # Type of FU issued
system.cpu.iq.FU_type_0::SimdFloatMult              0      0.00%     89.44% # Type of FU issued
system.cpu.iq.FU_type_0::SimdFloatMultAcc            0      0.00%     89.44% # Type of FU issued
system.cpu.iq.FU_type_0::SimdFloatSqrt              0      0.00%     89.44% # Type of FU issued
system.cpu.iq.FU_type_0::MemRead               472665      9.42%     98.86% # Type of FU issued
system.cpu.iq.FU_type_0::MemWrite               57315      1.14%    100.00% # Type of FU issued
system.cpu.iq.FU_type_0::IprAccess                  0      0.00%    100.00% # Type of FU issued
system.cpu.iq.FU_type_0::InstPrefetch               0      0.00%    100.00% # Type of FU issued
system.cpu.iq.FU_type_0::total                5020153                       # Type of FU issued
system.cpu.iq.rate                           0.674681                       # Inst issue rate
system.cpu.iq.fu_busy_cnt                       24491                       # FU busy when requested
system.cpu.iq.fu_busy_rate                   0.004879                       # FU busy rate (busy events/executed inst)
system.cpu.iq.int_inst_queue_reads            8461994                       # Number of integer instruction queue reads
system.cpu.iq.int_inst_queue_writes            608286                       # Number of integer instruction queue writes
system.cpu.iq.int_inst_queue_wakeup_accesses       582823                       # Number of integer instruction queue wakeup accesses
system.cpu.iq.fp_inst_queue_reads             8878432                       # Number of floating instruction queue reads
system.cpu.iq.fp_inst_queue_writes            4431865                       # Number of floating instruction queue writes
system.cpu.iq.fp_inst_queue_wakeup_accesses      4429608                       # Number of floating instruction queue wakeup accesses
system.cpu.iq.int_alu_accesses                 595845                       # Number of integer alu accesses
system.cpu.iq.fp_alu_accesses                 4448799                       # Number of floating point alu accesses
system.cpu.iew.lsq.thread0.forwLoads             1457                       # Number of loads that had data forwarded from stores
system.cpu.iew.lsq.thread0.invAddrLoads             0                       # Number of loads ignored due to an invalid address
system.cpu.iew.lsq.thread0.squashedLoads         3452                       # Number of loads squashed
system.cpu.iew.lsq.thread0.ignoredResponses           33                       # Number of memory responses ignored because the instruction is squashed
system.cpu.iew.lsq.thread0.memOrderViolation           83                       # Number of memory ordering violations
system.cpu.iew.lsq.thread0.squashedStores         2565                       # Number of stores squashed
system.cpu.iew.lsq.thread0.invAddrSwpfs             0                       # Number of software prefetches ignored due to an invalid address
system.cpu.iew.lsq.thread0.blockedLoads             0                       # Number of blocked loads due to partial load-store forwarding
system.cpu.iew.lsq.thread0.rescheduledLoads           73                       # Number of loads that were rescheduled
system.cpu.iew.lsq.thread0.cacheBlocked          5351                       # Number of times an access to memory failed due to the cache being blocked
system.cpu.iew.iewIdleCycles                        0                       # Number of cycles IEW is idle
system.cpu.iew.iewSquashCycles                   1892                       # Number of cycles IEW is squashing
system.cpu.iew.iewBlockCycles                  750230                       # Number of cycles IEW is blocking
system.cpu.iew.iewUnblockCycles                233041                       # Number of cycles IEW is unblocking
system.cpu.iew.iewDispatchedInsts             5034875                       # Number of instructions dispatched to IQ
system.cpu.iew.iewDispSquashedInsts               491                       # Number of squashed instructions skipped by dispatch
system.cpu.iew.iewDispLoadInsts                468068                       # Number of dispatched load instructions
system.cpu.iew.iewDispStoreInsts                58088                       # Number of dispatched store instructions
system.cpu.iew.iewDispNonSpecInsts                374                       # Number of dispatched non-speculative instructions
system.cpu.iew.iewIQFullEvents                  95443                       # Number of times the IQ has become full, causing a stall
system.cpu.iew.iewLSQFullEvents                 16628                       # Number of times the LSQ has become full, causing a stall
system.cpu.iew.memOrderViolationEvents             83                       # Number of memory order violations
system.cpu.iew.predictedTakenIncorrect            447                       # Number of branches that were predicted taken incorrectly
system.cpu.iew.predictedNotTakenIncorrect         1468                       # Number of branches that were predicted not taken incorrectly
system.cpu.iew.branchMispredicts                 1915                       # Number of branch mispredicts detected at execute
system.cpu.iew.iewExecutedInsts               5018495                       # Number of executed instructions
system.cpu.iew.iewExecLoadInsts                472051                       # Number of load instructions executed
system.cpu.iew.iewExecSquashedInsts              1657                       # Number of squashed instructions skipped in execute
system.cpu.iew.exec_swp                             0                       # number of swp insts executed
system.cpu.iew.exec_nop                         14789                       # number of nop insts executed
system.cpu.iew.exec_refs                       529158                       # number of memory reference insts executed
system.cpu.iew.exec_branches                   257313                       # Number of branches executed
system.cpu.iew.exec_stores                      57107                       # Number of stores executed
system.cpu.iew.exec_rate                     0.674458                       # Inst execution rate
system.cpu.iew.wb_sent                        5012922                       # cumulative count of insts sent to commit
system.cpu.iew.wb_count                       5012431                       # cumulative count of insts written-back
system.cpu.iew.wb_producers                   4232602                       # num instructions producing a value
system.cpu.iew.wb_consumers                   5226573                       # num instructions consuming a value
system.cpu.iew.wb_penalized                         0                       # number of instrctions required to write to 'other' IQ
system.cpu.iew.wb_rate                       0.673643                       # insts written-back per cycle
system.cpu.iew.wb_fanout                     0.809824                       # average fanout of values written-back
system.cpu.iew.wb_penalized_rate                    0                       # fraction of instructions written-back that wrote to 'other' IQ
system.cpu.commit.commitSquashedInsts           20832                       # The number of squashed insts skipped by commit
system.cpu.commit.commitNonSpecStalls             641                       # The number of times commit has been forced to stall to communicate backwards
system.cpu.commit.branchMispredicts              1695                       # The number of times a branch was mispredicted
system.cpu.commit.committed_per_cycle::samples      7271740                       # Number of insts commited each cycle
system.cpu.commit.committed_per_cycle::mean     0.689450                       # Number of insts commited each cycle
system.cpu.commit.committed_per_cycle::stdev     1.308009                       # Number of insts commited each cycle
system.cpu.commit.committed_per_cycle::underflows            0      0.00%      0.00% # Number of insts commited each cycle
system.cpu.commit.committed_per_cycle::0      4469199     61.46%     61.46% # Number of insts commited each cycle
system.cpu.commit.committed_per_cycle::1      1722480     23.69%     85.15% # Number of insts commited each cycle
system.cpu.commit.committed_per_cycle::2       724748      9.97%     95.11% # Number of insts commited each cycle
system.cpu.commit.committed_per_cycle::3       158942      2.19%     97.30% # Number of insts commited each cycle
system.cpu.commit.committed_per_cycle::4         4029      0.06%     97.35% # Number of insts commited each cycle
system.cpu.commit.committed_per_cycle::5        53329      0.73%     98.09% # Number of insts commited each cycle
system.cpu.commit.committed_per_cycle::6         1848      0.03%     98.11% # Number of insts commited each cycle
system.cpu.commit.committed_per_cycle::7        26470      0.36%     98.48% # Number of insts commited each cycle
system.cpu.commit.committed_per_cycle::8       110695      1.52%    100.00% # Number of insts commited each cycle
system.cpu.commit.committed_per_cycle::overflows            0      0.00%    100.00% # Number of insts commited each cycle
system.cpu.commit.committed_per_cycle::min_value            0                       # Number of insts commited each cycle
system.cpu.commit.committed_per_cycle::max_value            8                       # Number of insts commited each cycle
system.cpu.commit.committed_per_cycle::total      7271740                       # Number of insts commited each cycle
system.cpu.commit.committedInsts              5013501                       # Number of instructions committed
system.cpu.commit.committedOps                5013501                       # Number of ops (including micro ops) committed
system.cpu.commit.swp_count                         0                       # Number of s/w prefetches committed
system.cpu.commit.refs                         520131                       # Number of memory references committed
system.cpu.commit.loads                        464608                       # Number of loads committed
system.cpu.commit.membars                         292                       # Number of memory barriers committed
system.cpu.commit.branches                     254984                       # Number of branches committed
system.cpu.commit.fp_insts                    4428921                       # Number of committed floating point instructions.
system.cpu.commit.int_insts                   1027906                       # Number of committed integer instructions.
system.cpu.commit.function_calls               105675                       # Number of function calls committed.
system.cpu.commit.op_class_0::No_OpClass        13499      0.27%      0.27% # Class of committed instruction
system.cpu.commit.op_class_0::IntAlu           509022     10.15%     10.42% # Class of committed instruction
system.cpu.commit.op_class_0::IntMult             138      0.00%     10.43% # Class of committed instruction
system.cpu.commit.op_class_0::IntDiv                0      0.00%     10.43% # Class of committed instruction
system.cpu.commit.op_class_0::FloatAdd        2647019     52.80%     63.22% # Class of committed instruction
system.cpu.commit.op_class_0::FloatCmp              8      0.00%     63.22% # Class of committed instruction
system.cpu.commit.op_class_0::FloatCvt              0      0.00%     63.22% # Class of committed instruction
system.cpu.commit.op_class_0::FloatMult       1323392     26.40%     89.62% # Class of committed instruction
system.cpu.commit.op_class_0::FloatDiv              0      0.00%     89.62% # Class of committed instruction
system.cpu.commit.op_class_0::FloatSqrt             0      0.00%     89.62% # Class of committed instruction
system.cpu.commit.op_class_0::SimdAdd               0      0.00%     89.62% # Class of committed instruction
system.cpu.commit.op_class_0::SimdAddAcc            0      0.00%     89.62% # Class of committed instruction
system.cpu.commit.op_class_0::SimdAlu               0      0.00%     89.62% # Class of committed instruction
system.cpu.commit.op_class_0::SimdCmp               0      0.00%     89.62% # Class of committed instruction
system.cpu.commit.op_class_0::SimdCvt               0      0.00%     89.62% # Class of committed instruction
system.cpu.commit.op_class_0::SimdMisc              0      0.00%     89.62% # Class of committed instruction
system.cpu.commit.op_class_0::SimdMult              0      0.00%     89.62% # Class of committed instruction
system.cpu.commit.op_class_0::SimdMultAcc            0      0.00%     89.62% # Class of committed instruction
system.cpu.commit.op_class_0::SimdShift             0      0.00%     89.62% # Class of committed instruction
system.cpu.commit.op_class_0::SimdShiftAcc            0      0.00%     89.62% # Class of committed instruction
system.cpu.commit.op_class_0::SimdSqrt              0      0.00%     89.62% # Class of committed instruction
system.cpu.commit.op_class_0::SimdFloatAdd            0      0.00%     89.62% # Class of committed instruction
system.cpu.commit.op_class_0::SimdFloatAlu            0      0.00%     89.62% # Class of committed instruction
system.cpu.commit.op_class_0::SimdFloatCmp            0      0.00%     89.62% # Class of committed instruction
system.cpu.commit.op_class_0::SimdFloatCvt            0      0.00%     89.62% # Class of committed instruction
system.cpu.commit.op_class_0::SimdFloatDiv            0      0.00%     89.62% # Class of committed instruction
system.cpu.commit.op_class_0::SimdFloatMisc            0      0.00%     89.62% # Class of committed instruction
system.cpu.commit.op_class_0::SimdFloatMult            0      0.00%     89.62% # Class of committed instruction
system.cpu.commit.op_class_0::SimdFloatMultAcc            0      0.00%     89.62% # Class of committed instruction
system.cpu.commit.op_class_0::SimdFloatSqrt            0      0.00%     89.62% # Class of committed instruction
system.cpu.commit.op_class_0::MemRead          464900      9.27%     98.89% # Class of committed instruction
system.cpu.commit.op_class_0::MemWrite          55523      1.11%    100.00% # Class of committed instruction
system.cpu.commit.op_class_0::IprAccess             0      0.00%    100.00% # Class of committed instruction
system.cpu.commit.op_class_0::InstPrefetch            0      0.00%    100.00% # Class of committed instruction
system.cpu.commit.op_class_0::total           5013501                       # Class of committed instruction
system.cpu.commit.bw_lim_events                110695                       # number cycles where commit BW limit reached
system.cpu.rob.rob_reads                     12193649                       # The number of ROB reads
system.cpu.rob.rob_writes                    10072517                       # The number of ROB writes
system.cpu.timesIdled                            8251                       # Number of times that the entire CPU went into an idle state and unscheduled itself
system.cpu.idleCycles                          165306                       # Total number of cycles that the CPU has spent unscheduled due to idling
system.cpu.committedInsts                     5000002                       # Number of Instructions Simulated
system.cpu.committedOps                       5000002                       # Number of Ops (including micro ops) Simulated
system.cpu.cpi                               1.488155                       # CPI: Cycles Per Instruction
system.cpu.cpi_total                         1.488155                       # CPI: Total CPI of All Threads
system.cpu.ipc                               0.671973                       # IPC: Instructions Per Cycle
system.cpu.ipc_total                         0.671973                       # IPC: Total IPC of All Threads
system.cpu.int_regfile_reads                  1027291                       # number of integer regfile reads
system.cpu.int_regfile_writes                  400171                       # number of integer regfile writes
system.cpu.fp_regfile_reads                   6236408                       # number of floating regfile reads
system.cpu.fp_regfile_writes                  4403505                       # number of floating regfile writes
system.cpu.misc_regfile_reads                     661                       # number of misc regfile reads
system.cpu.misc_regfile_writes                    582                       # number of misc regfile writes
system.cpu.dcache.tags.replacements              3564                       # number of replacements
system.cpu.dcache.tags.tagsinuse           507.339577                       # Cycle average of tags in use
system.cpu.dcache.tags.total_refs              512457                       # Total number of references to valid blocks.
system.cpu.dcache.tags.sampled_refs              4076                       # Sample count of references to valid blocks.
system.cpu.dcache.tags.avg_refs            125.725466                       # Average number of references to valid blocks.
system.cpu.dcache.tags.warmup_cycle         179994250                       # Cycle when the warmup percentage was hit.
system.cpu.dcache.tags.occ_blocks::cpu.data   507.339577                       # Average occupied blocks per requestor
system.cpu.dcache.tags.occ_percent::cpu.data     0.990898                       # Average percentage of cache occupancy
system.cpu.dcache.tags.occ_percent::total     0.990898                       # Average percentage of cache occupancy
system.cpu.dcache.tags.occ_task_id_blocks::1024          512                       # Occupied blocks per task id
system.cpu.dcache.tags.age_task_id_blocks_1024::0            5                       # Occupied blocks per task id
system.cpu.dcache.tags.age_task_id_blocks_1024::1           41                       # Occupied blocks per task id
system.cpu.dcache.tags.age_task_id_blocks_1024::2          412                       # Occupied blocks per task id
system.cpu.dcache.tags.age_task_id_blocks_1024::3           54                       # Occupied blocks per task id
system.cpu.dcache.tags.occ_task_id_percent::1024            1                       # Percentage of cache occupancy per task id
system.cpu.dcache.tags.tag_accesses           2088700                       # Number of tag accesses
system.cpu.dcache.tags.data_accesses          2088700                       # Number of data accesses
system.cpu.dcache.ReadReq_hits::cpu.data       464176                       # number of ReadReq hits
system.cpu.dcache.ReadReq_hits::total          464176                       # number of ReadReq hits
system.cpu.dcache.WriteReq_hits::cpu.data        47706                       # number of WriteReq hits
system.cpu.dcache.WriteReq_hits::total          47706                       # number of WriteReq hits
system.cpu.dcache.LoadLockedReq_hits::cpu.data          285                       # number of LoadLockedReq hits
system.cpu.dcache.LoadLockedReq_hits::total          285                       # number of LoadLockedReq hits
system.cpu.dcache.StoreCondReq_hits::cpu.data          290                       # number of StoreCondReq hits
system.cpu.dcache.StoreCondReq_hits::total          290                       # number of StoreCondReq hits
system.cpu.dcache.demand_hits::cpu.data        511882                       # number of demand (read+write) hits
system.cpu.dcache.demand_hits::total           511882                       # number of demand (read+write) hits
system.cpu.dcache.overall_hits::cpu.data       511882                       # number of overall hits
system.cpu.dcache.overall_hits::total          511882                       # number of overall hits
system.cpu.dcache.ReadReq_misses::cpu.data         1161                       # number of ReadReq misses
system.cpu.dcache.ReadReq_misses::total          1161                       # number of ReadReq misses
system.cpu.dcache.WriteReq_misses::cpu.data         7527                       # number of WriteReq misses
system.cpu.dcache.WriteReq_misses::total         7527                       # number of WriteReq misses
system.cpu.dcache.LoadLockedReq_misses::cpu.data           11                       # number of LoadLockedReq misses
system.cpu.dcache.LoadLockedReq_misses::total           11                       # number of LoadLockedReq misses
system.cpu.dcache.demand_misses::cpu.data         8688                       # number of demand (read+write) misses
system.cpu.dcache.demand_misses::total           8688                       # number of demand (read+write) misses
system.cpu.dcache.overall_misses::cpu.data         8688                       # number of overall misses
system.cpu.dcache.overall_misses::total          8688                       # number of overall misses
system.cpu.dcache.ReadReq_miss_latency::cpu.data     75352250                       # number of ReadReq miss cycles
system.cpu.dcache.ReadReq_miss_latency::total     75352250                       # number of ReadReq miss cycles
system.cpu.dcache.WriteReq_miss_latency::cpu.data    536963818                       # number of WriteReq miss cycles
system.cpu.dcache.WriteReq_miss_latency::total    536963818                       # number of WriteReq miss cycles
system.cpu.dcache.LoadLockedReq_miss_latency::cpu.data       646750                       # number of LoadLockedReq miss cycles
system.cpu.dcache.LoadLockedReq_miss_latency::total       646750                       # number of LoadLockedReq miss cycles
system.cpu.dcache.demand_miss_latency::cpu.data    612316068                       # number of demand (read+write) miss cycles
system.cpu.dcache.demand_miss_latency::total    612316068                       # number of demand (read+write) miss cycles
system.cpu.dcache.overall_miss_latency::cpu.data    612316068                       # number of overall miss cycles
system.cpu.dcache.overall_miss_latency::total    612316068                       # number of overall miss cycles
system.cpu.dcache.ReadReq_accesses::cpu.data       465337                       # number of ReadReq accesses(hits+misses)
system.cpu.dcache.ReadReq_accesses::total       465337                       # number of ReadReq accesses(hits+misses)
system.cpu.dcache.WriteReq_accesses::cpu.data        55233                       # number of WriteReq accesses(hits+misses)
system.cpu.dcache.WriteReq_accesses::total        55233                       # number of WriteReq accesses(hits+misses)
system.cpu.dcache.LoadLockedReq_accesses::cpu.data          296                       # number of LoadLockedReq accesses(hits+misses)
system.cpu.dcache.LoadLockedReq_accesses::total          296                       # number of LoadLockedReq accesses(hits+misses)
system.cpu.dcache.StoreCondReq_accesses::cpu.data          290                       # number of StoreCondReq accesses(hits+misses)
system.cpu.dcache.StoreCondReq_accesses::total          290                       # number of StoreCondReq accesses(hits+misses)
system.cpu.dcache.demand_accesses::cpu.data       520570                       # number of demand (read+write) accesses
system.cpu.dcache.demand_accesses::total       520570                       # number of demand (read+write) accesses
system.cpu.dcache.overall_accesses::cpu.data       520570                       # number of overall (read+write) accesses
system.cpu.dcache.overall_accesses::total       520570                       # number of overall (read+write) accesses
system.cpu.dcache.ReadReq_miss_rate::cpu.data     0.002495                       # miss rate for ReadReq accesses
system.cpu.dcache.ReadReq_miss_rate::total     0.002495                       # miss rate for ReadReq accesses
system.cpu.dcache.WriteReq_miss_rate::cpu.data     0.136277                       # miss rate for WriteReq accesses
system.cpu.dcache.WriteReq_miss_rate::total     0.136277                       # miss rate for WriteReq accesses
system.cpu.dcache.LoadLockedReq_miss_rate::cpu.data     0.037162                       # miss rate for LoadLockedReq accesses
system.cpu.dcache.LoadLockedReq_miss_rate::total     0.037162                       # miss rate for LoadLockedReq accesses
system.cpu.dcache.demand_miss_rate::cpu.data     0.016689                       # miss rate for demand accesses
system.cpu.dcache.demand_miss_rate::total     0.016689                       # miss rate for demand accesses
system.cpu.dcache.overall_miss_rate::cpu.data     0.016689                       # miss rate for overall accesses
system.cpu.dcache.overall_miss_rate::total     0.016689                       # miss rate for overall accesses
system.cpu.dcache.ReadReq_avg_miss_latency::cpu.data 64902.885444                       # average ReadReq miss latency
system.cpu.dcache.ReadReq_avg_miss_latency::total 64902.885444                       # average ReadReq miss latency
system.cpu.dcache.WriteReq_avg_miss_latency::cpu.data 71338.357646                       # average WriteReq miss latency
system.cpu.dcache.WriteReq_avg_miss_latency::total 71338.357646                       # average WriteReq miss latency
system.cpu.dcache.LoadLockedReq_avg_miss_latency::cpu.data 58795.454545                       # average LoadLockedReq miss latency
[...]
system.l2.ReadReq_hits::cpu.data                  131                       # number of ReadReq hits
system.l2.ReadReq_hits::total                    9163                       # number of ReadReq hits
system.l2.Writeback_hits::writebacks             3251                       # number of Writeback hits
system.l2.Writeback_hits::total                  3251                       # number of Writeback hits
system.l2.ReadExReq_hits::cpu.data                 39                       # number of ReadExReq hits
system.l2.ReadExReq_hits::total                    39                       # number of ReadExReq hits
system.l2.demand_hits::cpu.inst                  9032                       # number of demand (read+write) hits
system.l2.demand_hits::cpu.data                   170                       # number of demand (read+write) hits
system.l2.demand_hits::total                     9202                       # number of demand (read+write) hits
system.l2.overall_hits::cpu.inst                 9032                       # number of overall hits
system.l2.overall_hits::cpu.data                  170                       # number of overall hits
system.l2.overall_hits::total                    9202                       # number of overall hits
system.l2.ReadReq_misses::cpu.inst               1525                       # number of ReadReq misses
system.l2.ReadReq_misses::cpu.data                657                       # number of ReadReq misses
system.l2.ReadReq_misses::total                  2182                       # number of ReadReq misses
system.l2.ReadExReq_misses::cpu.data             3249                       # number of ReadExReq misses
system.l2.ReadExReq_misses::total                3249                       # number of ReadExReq misses
system.l2.demand_misses::cpu.inst                1525                       # number of demand (read+write) misses
system.l2.demand_misses::cpu.data                3906                       # number of demand (read+write) misses
system.l2.demand_misses::total                   5431                       # number of demand (read+write) misses
system.l2.overall_misses::cpu.inst               1525                       # number of overall misses
system.l2.overall_misses::cpu.data               3906                       # number of overall misses
system.l2.overall_misses::total                  5431                       # number of overall misses
system.l2.ReadReq_miss_latency::cpu.inst    114630250                       # number of ReadReq miss cycles
system.l2.ReadReq_miss_latency::cpu.data     52568750                       # number of ReadReq miss cycles
system.l2.ReadReq_miss_latency::total       167199000                       # number of ReadReq miss cycles
system.l2.ReadExReq_miss_latency::cpu.data    239697000                       # number of ReadExReq miss cycles
system.l2.ReadExReq_miss_latency::total     239697000                       # number of ReadExReq miss cycles
system.l2.demand_miss_latency::cpu.inst     114630250                       # number of demand (read+write) miss cycles
system.l2.demand_miss_latency::cpu.data     292265750                       # number of demand (read+write) miss cycles
system.l2.demand_miss_latency::total        406896000                       # number of demand (read+write) miss cycles
system.l2.overall_miss_latency::cpu.inst    114630250                       # number of overall miss cycles
system.l2.overall_miss_latency::cpu.data    292265750                       # number of overall miss cycles
system.l2.overall_miss_latency::total       406896000                       # number of overall miss cycles
system.l2.ReadReq_accesses::cpu.inst            10557                       # number of ReadReq accesses(hits+misses)
system.l2.ReadReq_accesses::cpu.data              788                       # number of ReadReq accesses(hits+misses)
system.l2.ReadReq_accesses::total               11345                       # number of ReadReq accesses(hits+misses)
system.l2.Writeback_accesses::writebacks         3251                       # number of Writeback accesses(hits+misses)
system.l2.Writeback_accesses::total              3251                       # number of Writeback accesses(hits+misses)
system.l2.ReadExReq_accesses::cpu.data           3288                       # number of ReadExReq accesses(hits+misses)
system.l2.ReadExReq_accesses::total              3288                       # number of ReadExReq accesses(hits+misses)
system.l2.demand_accesses::cpu.inst             10557                       # number of demand (read+write) accesses
system.l2.demand_accesses::cpu.data              4076                       # number of demand (read+write) accesses
system.l2.demand_accesses::total                14633                       # number of demand (read+write) accesses
system.l2.overall_accesses::cpu.inst            10557                       # number of overall (read+write) accesses
system.l2.overall_accesses::cpu.data             4076                       # number of overall (read+write) accesses
system.l2.overall_accesses::total               14633                       # number of overall (read+write) accesses
system.l2.ReadReq_miss_rate::cpu.inst        0.144454                       # miss rate for ReadReq accesses
system.l2.ReadReq_miss_rate::cpu.data        0.833756                       # miss rate for ReadReq accesses
system.l2.ReadReq_miss_rate::total           0.192331                       # miss rate for ReadReq accesses
system.l2.ReadExReq_miss_rate::cpu.data      0.988139                       # miss rate for ReadExReq accesses
system.l2.ReadExReq_miss_rate::total         0.988139                       # miss rate for ReadExReq accesses
system.l2.demand_miss_rate::cpu.inst         0.144454                       # miss rate for demand accesses
system.l2.demand_miss_rate::cpu.data         0.958292                       # miss rate for demand accesses
system.l2.demand_miss_rate::total            0.371147                       # miss rate for demand accesses
system.l2.overall_miss_rate::cpu.inst        0.144454                       # miss rate for overall accesses
system.l2.overall_miss_rate::cpu.data        0.958292                       # miss rate for overall accesses
system.l2.overall_miss_rate::total           0.371147                       # miss rate for overall accesses
system.l2.ReadReq_avg_miss_latency::cpu.inst 75167.377049                       # average ReadReq miss latency
system.l2.ReadReq_avg_miss_latency::cpu.data 80013.318113                       # average ReadReq miss latency
system.l2.ReadReq_avg_miss_latency::total 76626.489459                       # average ReadReq miss latency
system.l2.ReadExReq_avg_miss_latency::cpu.data 73775.623269                       # average ReadExReq miss latency
system.l2.ReadExReq_avg_miss_latency::total 73775.623269                       # average ReadExReq miss latency
system.l2.demand_avg_miss_latency::cpu.inst 75167.377049                       # average overall miss latency
system.l2.demand_avg_miss_latency::cpu.data 74824.820789                       # average overall miss latency
system.l2.demand_avg_miss_latency::total 74921.009022                       # average overall miss latency
system.l2.overall_avg_miss_latency::cpu.inst 75167.377049                       # average overall miss latency
system.l2.overall_avg_miss_latency::cpu.data 74824.820789                       # average overall miss latency
system.l2.overall_avg_miss_latency::total 74921.009022                       # average overall miss latency
system.l2.blocked_cycles::no_mshrs                  0                       # number of cycles access was blocked
system.l2.blocked_cycles::no_targets                0                       # number of cycles access was blocked
system.l2.blocked::no_mshrs                         0                       # number of cycles access was blocked
system.l2.blocked::no_targets                       0                       # number of cycles access was blocked
system.l2.avg_blocked_cycles::no_mshrs            nan                       # average number of cycles each access was blocked
system.l2.avg_blocked_cycles::no_targets          nan                       # average number of cycles each access was blocked
system.l2.fast_writes                               0                       # number of fast writes performed
system.l2.cache_copies                              0                       # number of cache copies performed
system.l2.writebacks::writebacks                 1519                       # number of writebacks
system.l2.writebacks::total                      1519                       # number of writebacks
system.l2.ReadReq_mshr_misses::cpu.inst          1525                       # number of ReadReq MSHR misses
system.l2.ReadReq_mshr_misses::cpu.data           657                       # number of ReadReq MSHR misses
system.l2.ReadReq_mshr_misses::total             2182                       # number of ReadReq MSHR misses
system.l2.ReadExReq_mshr_misses::cpu.data         3249                       # number of ReadExReq MSHR misses
system.l2.ReadExReq_mshr_misses::total           3249                       # number of ReadExReq MSHR misses
system.l2.demand_mshr_misses::cpu.inst           1525                       # number of demand (read+write) MSHR misses
system.l2.demand_mshr_misses::cpu.data           3906                       # number of demand (read+write) MSHR misses
system.l2.demand_mshr_misses::total              5431                       # number of demand (read+write) MSHR misses
system.l2.overall_mshr_misses::cpu.inst          1525                       # number of overall MSHR misses
system.l2.overall_mshr_misses::cpu.data          3906                       # number of overall MSHR misses
system.l2.overall_mshr_misses::total             5431                       # number of overall MSHR misses
system.l2.ReadReq_mshr_miss_latency::cpu.inst     97175750                       # number of ReadReq MSHR miss cycles
system.l2.ReadReq_mshr_miss_latency::cpu.data     45068250                       # number of ReadReq MSHR miss cycles
system.l2.ReadReq_mshr_miss_latency::total    142244000                       # number of ReadReq MSHR miss cycles
system.l2.ReadExReq_mshr_miss_latency::cpu.data    202674000                       # number of ReadExReq MSHR miss cycles
system.l2.ReadExReq_mshr_miss_latency::total    202674000                       # number of ReadExReq MSHR miss cycles
system.l2.demand_mshr_miss_latency::cpu.inst     97175750                       # number of demand (read+write) MSHR miss cycles
system.l2.demand_mshr_miss_latency::cpu.data    247742250                       # number of demand (read+write) MSHR miss cycles
system.l2.demand_mshr_miss_latency::total    344918000                       # number of demand (read+write) MSHR miss cycles
system.l2.overall_mshr_miss_latency::cpu.inst     97175750                       # number of overall MSHR miss cycles
system.l2.overall_mshr_miss_latency::cpu.data    247742250                       # number of overall MSHR miss cycles
system.l2.overall_mshr_miss_latency::total    344918000                       # number of overall MSHR miss cycles
system.l2.ReadReq_mshr_miss_rate::cpu.inst     0.144454                       # mshr miss rate for ReadReq accesses
system.l2.ReadReq_mshr_miss_rate::cpu.data     0.833756                       # mshr miss rate for ReadReq accesses
system.l2.ReadReq_mshr_miss_rate::total      0.192331                       # mshr miss rate for ReadReq accesses
system.l2.ReadExReq_mshr_miss_rate::cpu.data     0.988139                       # mshr miss rate for ReadExReq accesses
system.l2.ReadExReq_mshr_miss_rate::total     0.988139                       # mshr miss rate for ReadExReq accesses
system.l2.demand_mshr_miss_rate::cpu.inst     0.144454                       # mshr miss rate for demand accesses
system.l2.demand_mshr_miss_rate::cpu.data     0.958292                       # mshr miss rate for demand accesses
system.l2.demand_mshr_miss_rate::total       0.371147                       # mshr miss rate for demand accesses
system.l2.overall_mshr_miss_rate::cpu.inst     0.144454                       # mshr miss rate for overall accesses
system.l2.overall_mshr_miss_rate::cpu.data     0.958292                       # mshr miss rate for overall accesses
system.l2.overall_mshr_miss_rate::total      0.371147                       # mshr miss rate for overall accesses
system.l2.ReadReq_avg_mshr_miss_latency::cpu.inst 63721.803279                       # average ReadReq mshr miss latency
system.l2.ReadReq_avg_mshr_miss_latency::cpu.data 68597.031963                       # average ReadReq mshr miss latency
system.l2.ReadReq_avg_mshr_miss_latency::total 65189.734189                       # average ReadReq mshr miss latency
system.l2.ReadExReq_avg_mshr_miss_latency::cpu.data 62380.424746                       # average ReadExReq mshr miss latency
system.l2.ReadExReq_avg_mshr_miss_latency::total 62380.424746                       # average ReadExReq mshr miss latency
system.l2.demand_avg_mshr_miss_latency::cpu.inst 63721.803279                       # average overall mshr miss latency
system.l2.demand_avg_mshr_miss_latency::cpu.data 63426.075269                       # average overall mshr miss latency
system.l2.demand_avg_mshr_miss_latency::total 63509.114344                       # average overall mshr miss latency
system.l2.overall_avg_mshr_miss_latency::cpu.inst 63721.803279                       # average overall mshr miss latency
system.l2.overall_avg_mshr_miss_latency::cpu.data 63426.075269                       # average overall mshr miss latency
system.l2.overall_avg_mshr_miss_latency::total 63509.114344                       # average overall mshr miss latency
system.l2.no_allocate_misses                        0                       # Number of misses that were no-allocate
system.membus.trans_dist::ReadReq                2182                       # Transaction distribution
system.membus.trans_dist::ReadResp               2182                       # Transaction distribution
system.membus.trans_dist::Writeback              1519                       # Transaction distribution
system.membus.trans_dist::ReadExReq              3249                       # Transaction distribution
system.membus.trans_dist::ReadExResp             3249                       # Transaction distribution
system.membus.pkt_count_system.l2.mem_side::system.mem_ctrls.port        12381                       # Packet count per connected master and slave (bytes)
system.membus.pkt_count::total                  12381                       # Packet count per connected master and slave (bytes)
system.membus.pkt_size_system.l2.mem_side::system.mem_ctrls.port       444800                       # Cumulative packet size per connected master and slave (bytes)
system.membus.pkt_size::total                  444800                       # Cumulative packet size per connected master and slave (bytes)
system.membus.snoops                                0                       # Total snoops (count)
system.membus.snoop_fanout::samples              6950                       # Request fanout histogram
system.membus.snoop_fanout::mean                    0                       # Request fanout histogram
system.membus.snoop_fanout::stdev                   0                       # Request fanout histogram
system.membus.snoop_fanout::underflows              0      0.00%      0.00% # Request fanout histogram
system.membus.snoop_fanout::0                    6950    100.00%    100.00% # Request fanout histogram
system.membus.snoop_fanout::1                       0      0.00%    100.00% # Request fanout histogram
system.membus.snoop_fanout::overflows               0      0.00%    100.00% # Request fanout histogram
system.membus.snoop_fanout::min_value               0                       # Request fanout histogram
system.membus.snoop_fanout::max_value               0                       # Request fanout histogram
system.membus.snoop_fanout::total                6950                       # Request fanout histogram
system.membus.reqLayer0.occupancy             6513000                       # Layer occupancy (ticks)
system.membus.reqLayer0.utilization               0.2                       # Layer utilization (%)
system.membus.respLayer1.occupancy           14696000                       # Layer occupancy (ticks)
system.membus.respLayer1.utilization              0.4                       # Layer utilization (%)
system.tol2bus.trans_dist::ReadReq              11345                       # Transaction distribution
system.tol2bus.trans_dist::ReadResp             11345                       # Transaction distribution
system.tol2bus.trans_dist::Writeback             3251                       # Transaction distribution
system.tol2bus.trans_dist::ReadExReq             3288                       # Transaction distribution
system.tol2bus.trans_dist::ReadExResp            3288                       # Transaction distribution
system.tol2bus.pkt_count_system.cpu.icache.mem_side::system.l2.cpu_side        21114                       # Packet count per connected master and slave (bytes)
system.tol2bus.pkt_count_system.cpu.dcache.mem_side::system.l2.cpu_side        11403                       # Packet count per connected master and slave (bytes)
system.tol2bus.pkt_count::total                 32517                       # Packet count per connected master and slave (bytes)
system.tol2bus.pkt_size_system.cpu.icache.mem_side::system.l2.cpu_side       675648                       # Cumulative packet size per connected master and slave (bytes)
system.tol2bus.pkt_size_system.cpu.dcache.mem_side::system.l2.cpu_side       468928                       # Cumulative packet size per connected master and slave (bytes)
system.tol2bus.pkt_size::total                1144576                       # Cumulative packet size per connected master and slave (bytes)
system.tol2bus.snoops                               0                       # Total snoops (count)
system.tol2bus.snoop_fanout::samples            17884                       # Request fanout histogram
system.tol2bus.snoop_fanout::mean                   1                       # Request fanout histogram
system.tol2bus.snoop_fanout::stdev                  0                       # Request fanout histogram
system.tol2bus.snoop_fanout::underflows             0      0.00%      0.00% # Request fanout histogram
system.tol2bus.snoop_fanout::0                      0      0.00%      0.00% # Request fanout histogram
system.tol2bus.snoop_fanout::1                  17884    100.00%    100.00% # Request fanout histogram
system.tol2bus.snoop_fanout::2                      0      0.00%    100.00% # Request fanout histogram
system.tol2bus.snoop_fanout::overflows              0      0.00%    100.00% # Request fanout histogram
system.tol2bus.snoop_fanout::min_value              1                       # Request fanout histogram
system.tol2bus.snoop_fanout::max_value              1                       # Request fanout histogram
system.tol2bus.snoop_fanout::total              17884                       # Request fanout histogram
system.tol2bus.reqLayer0.occupancy           12193000                       # Layer occupancy (ticks)
system.tol2bus.reqLayer0.utilization              0.3                       # Layer utilization (%)
system.tol2bus.respLayer0.occupancy          16175995                       # Layer occupancy (ticks)
system.tol2bus.respLayer0.utilization             0.4                       # Layer utilization (%)
system.tol2bus.respLayer1.occupancy           6892750                       # Layer occupancy (ticks)
system.tol2bus.respLayer1.utilization             0.2                       # Layer utilization (%)

---------- End Simulation Statistics   ----------
