
---------- Begin Simulation Statistics ----------
sim_seconds                                  0.003724                       # Number of seconds simulated
sim_ticks                                  3724077500                       # Number of ticks simulated
final_tick                                 3724077500                       # Number of ticks from beginning of simulation (restored from checkpoints and never reset)
sim_freq                                 1000000000000                       # Frequency of simulated ticks
host_inst_rate                                 283924                       # Simulator instruction rate (inst/s)
host_op_rate                                   283923                       # Simulator op (including micro ops) rate (op/s)
host_tick_rate                              211470424                       # Simulator tick rate (ticks/s)
host_mem_usage                                 637024                       # Number of bytes of host memory used
host_seconds                                    17.61                       # Real time elapsed on the host
sim_insts                                     5000002                       # Number of instructions simulated
sim_ops                                       5000002                       # Number of ops (including micro ops) simulated
system.voltage_domain.voltage                       1                       # Voltage in Volts
system.clk_domain.clock                           500                       # Clock period in ticks
system.mem_ctrls.bytes_read::cpu.inst           97856                       # Number of bytes read from this memory
system.mem_ctrls.bytes_read::cpu.data          251072                       # Number of bytes read from this memory
system.mem_ctrls.bytes_read::total             348928                       # Number of bytes read from this memory
system.mem_ctrls.bytes_inst_read::cpu.inst        97856                       # Number of instructions bytes read from this memory
system.mem_ctrls.bytes_inst_read::total         97856                       # Number of instructions bytes read from this memory
system.mem_ctrls.bytes_written::writebacks       115968                       # Number of bytes written to this memory
system.mem_ctrls.bytes_written::total          115968                       # Number of bytes written to this memory
system.mem_ctrls.num_reads::cpu.inst             1529                       # Number of read requests responded to by this memory
system.mem_ctrls.num_reads::cpu.data             3923                       # Number of read requests responded to by this memory
system.mem_ctrls.num_reads::total                5452                       # Number of read requests responded to by this memory
system.mem_ctrls.num_writes::writebacks          1812                       # Number of write requests responded to by this memory
system.mem_ctrls.num_writes::total               1812                       # Number of write requests responded to by this memory
system.mem_ctrls.bw_read::cpu.inst           26276575                       # Total read bandwidth from this memory (bytes/s)
system.mem_ctrls.bw_read::cpu.data           67418575                       # Total read bandwidth from this memory (bytes/s)
system.mem_ctrls.bw_read::total              93695150                       # Total read bandwidth from this memory (bytes/s)
system.mem_ctrls.bw_inst_read::cpu.inst      26276575                       # Instruction read bandwidth from this memory (bytes/s)
system.mem_ctrls.bw_inst_read::total         26276575                       # Instruction read bandwidth from this memory (bytes/s)
system.mem_ctrls.bw_write::writebacks        31140061                       # Write bandwidth from this memory (bytes/s)
system.mem_ctrls.bw_write::total             31140061                       # Write bandwidth from this memory (bytes/s)
system.mem_ctrls.bw_total::writebacks        31140061                       # Total bandwidth to/from this memory (bytes/s)
system.mem_ctrls.bw_total::cpu.inst          26276575                       # Total bandwidth to/from this memory (bytes/s)
system.mem_ctrls.bw_total::cpu.data          67418575                       # Total bandwidth to/from this memory (bytes/s)
system.mem_ctrls.bw_total::total            124835211                       # Total bandwidth to/from this memory (bytes/s)
system.mem_ctrls.readReqs                        5452                       # Number of read requests accepted
system.mem_ctrls.writeReqs                       1812                       # Number of write requests accepted
system.mem_ctrls.readBursts                      5452                       # Number of DRAM read bursts, including those serviced by the write queue
system.mem_ctrls.writeBursts                     1812                       # Number of DRAM write bursts, including those merged in the write queue
system.mem_ctrls.bytesReadDRAM                 348864                       # Total number of bytes read from DRAM
system.mem_ctrls.bytesReadWrQ                      64                       # Total number of bytes read from write queue
system.mem_ctrls.bytesWritten                  114944                       # Total number of bytes written to DRAM
system.mem_ctrls.bytesReadSys                  348928                       # Total read bytes from the system interface side
system.mem_ctrls.bytesWrittenSys               115968                       # Total written bytes from the system interface side
system.mem_ctrls.servicedByWrQ                      1                       # Number of DRAM read bursts serviced by the write queue
system.mem_ctrls.mergedWrBursts                     0                       # Number of DRAM write bursts merged with an existing one
system.mem_ctrls.neitherReadNorWriteReqs            0                       # Number of requests that are neither read nor write
system.mem_ctrls.perBankRdBursts::0               376                       # Per bank write bursts
system.mem_ctrls.perBankRdBursts::1               354                       # Per bank write bursts
system.mem_ctrls.perBankRdBursts::2               246                       # Per bank write bursts
system.mem_ctrls.perBankRdBursts::3               263                       # Per bank write bursts
system.mem_ctrls.perBankRdBursts::4               369                       # Per bank write bursts
system.mem_ctrls.perBankRdBursts::5               285                       # Per bank write bursts
system.mem_ctrls.perBankRdBursts::6               271                       # Per bank write bursts
system.mem_ctrls.perBankRdBursts::7               242                       # Per bank write bursts
system.mem_ctrls.perBankRdBursts::8               352                       # Per bank write bursts
system.mem_ctrls.perBankRdBursts::9               389                       # Per bank write bursts
system.mem_ctrls.perBankRdBursts::10              286                       # Per bank write bursts
system.mem_ctrls.perBankRdBursts::11              407                       # Per bank write bursts
system.mem_ctrls.perBankRdBursts::12              256                       # Per bank write bursts
system.mem_ctrls.perBankRdBursts::13              422                       # Per bank write bursts
system.mem_ctrls.perBankRdBursts::14              534                       # Per bank write bursts
system.mem_ctrls.perBankRdBursts::15              399                       # Per bank write bursts
system.mem_ctrls.perBankWrBursts::0               113                       # Per bank write bursts
system.mem_ctrls.perBankWrBursts::1                58                       # Per bank write bursts
system.mem_ctrls.perBankWrBursts::2               133                       # Per bank write bursts
system.mem_ctrls.perBankWrBursts::3               158                       # Per bank write bursts
system.mem_ctrls.perBankWrBursts::4               164                       # Per bank write bursts
system.mem_ctrls.perBankWrBursts::5                70                       # Per bank write bursts
system.mem_ctrls.perBankWrBursts::6                77                       # Per bank write bursts
system.mem_ctrls.perBankWrBursts::7                64                       # Per bank write bursts
system.mem_ctrls.perBankWrBursts::8               149                       # Per bank write bursts
system.mem_ctrls.perBankWrBursts::9               171                       # Per bank write bursts
system.mem_ctrls.perBankWrBursts::10               66                       # Per bank write bursts
system.mem_ctrls.perBankWrBursts::11              144                       # Per bank write bursts
system.mem_ctrls.perBankWrBursts::12               70                       # Per bank write bursts
system.mem_ctrls.perBankWrBursts::13              115                       # Per bank write bursts
system.mem_ctrls.perBankWrBursts::14              149                       # Per bank write bursts
system.mem_ctrls.perBankWrBursts::15               95                       # Per bank write bursts
system.mem_ctrls.numRdRetry                         0                       # Number of times read queue was full causing retry
system.mem_ctrls.numWrRetry                         0                       # Number of times write queue was full causing retry
system.mem_ctrls.totGap                    3722921000                       # Total gap between requests
system.mem_ctrls.readPktSize::0                     0                       # Read request sizes (log2)
system.mem_ctrls.readPktSize::1                     0                       # Read request sizes (log2)
system.mem_ctrls.readPktSize::2                     0                       # Read request sizes (log2)
system.mem_ctrls.readPktSize::3                     0                       # Read request sizes (log2)
system.mem_ctrls.readPktSize::4                     0                       # Read request sizes (log2)
system.mem_ctrls.readPktSize::5                     0                       # Read request sizes (log2)
system.mem_ctrls.readPktSize::6                  5452                       # Read request sizes (log2)
system.mem_ctrls.writePktSize::0                    0                       # Write request sizes (log2)
system.mem_ctrls.writePktSize::1                    0                       # Write request sizes (log2)
system.mem_ctrls.writePktSize::2                    0                       # Write request sizes (log2)
system.mem_ctrls.writePktSize::3                    0                       # Write request sizes (log2)
system.mem_ctrls.writePktSize::4                    0                       # Write request sizes (log2)
system.mem_ctrls.writePktSize::5                    0                       # Write request sizes (log2)
system.mem_ctrls.writePktSize::6                 1812                       # Write request sizes (log2)
system.mem_ctrls.rdQLenPdf::0                    3707                       # What read queue length does an incoming req see
system.mem_ctrls.rdQLenPdf::1                    1108                       # What read queue length does an incoming req see
system.mem_ctrls.rdQLenPdf::2                     428                       # What read queue length does an incoming req see
system.mem_ctrls.rdQLenPdf::3                     194                       # What read queue length does an incoming req see
system.mem_ctrls.rdQLenPdf::4                      13                       # What read queue length does an incoming req see
system.mem_ctrls.rdQLenPdf::5                       1                       # What read queue length does an incoming req see
system.mem_ctrls.rdQLenPdf::6                       0                       # What read queue length does an incoming req see
system.mem_ctrls.rdQLenPdf::7                       0                       # What read queue length does an incoming req see
system.mem_ctrls.rdQLenPdf::8                       0                       # What read queue length does an incoming req see
system.mem_ctrls.rdQLenPdf::9                       0                       # What read queue length does an incoming req see
system.mem_ctrls.rdQLenPdf::10                      0                       # What read queue length does an incoming req see
system.mem_ctrls.rdQLenPdf::11                      0                       # What read queue length does an incoming req see
system.mem_ctrls.rdQLenPdf::12                      0                       # What read queue length does an incoming req see
system.mem_ctrls.rdQLenPdf::13                      0                       # What read queue length does an incoming req see
system.mem_ctrls.rdQLenPdf::14                      0                       # What read queue length does an incoming req see
system.mem_ctrls.rdQLenPdf::15                      0                       # What read queue length does an incoming req see
system.mem_ctrls.rdQLenPdf::16                      0                       # What read queue length does an incoming req see
system.mem_ctrls.rdQLenPdf::17                      0                       # What read queue length does an incoming req see
system.mem_ctrls.rdQLenPdf::18                      0                       # What read queue length does an incoming req see
system.mem_ctrls.rdQLenPdf::19                      0                       # What read queue length does an incoming req see
system.mem_ctrls.rdQLenPdf::20                      0                       # What read queue length does an incoming req see
system.mem_ctrls.rdQLenPdf::21                      0                       # What read queue length does an incoming req see
system.mem_ctrls.rdQLenPdf::22                      0                       # What read queue length does an incoming req see
system.mem_ctrls.rdQLenPdf::23                      0                       # What read queue length does an incoming req see
system.mem_ctrls.rdQLenPdf::24                      0                       # What read queue length does an incoming req see
system.mem_ctrls.rdQLenPdf::25                      0                       # What read queue length does an incoming req see
system.mem_ctrls.rdQLenPdf::26                      0                       # What read queue length does an incoming req see
system.mem_ctrls.rdQLenPdf::27                      0                       # What read queue length does an incoming req see
system.mem_ctrls.rdQLenPdf::28                      0                       # What read queue length does an incoming req see
system.mem_ctrls.rdQLenPdf::29                      0                       # What read queue length does an incoming req see
system.mem_ctrls.rdQLenPdf::30                      0                       # What read queue length does an incoming req see
system.mem_ctrls.rdQLenPdf::31                      0                       # What read queue length does an incoming req see
system.mem_ctrls.wrQLenPdf::0                       1                       # What write queue length does an incoming req see
system.mem_ctrls.wrQLenPdf::1                       1                       # What write queue length does an incoming req see
system.mem_ctrls.wrQLenPdf::2                       1                       # What write queue length does an incoming req see
system.mem_ctrls.wrQLenPdf::3                       1                       # What write queue length does an incoming req see
system.mem_ctrls.wrQLenPdf::4                       1                       # What write queue length does an incoming req see
system.mem_ctrls.wrQLenPdf::5                       1                       # What write queue length does an incoming req see
system.mem_ctrls.wrQLenPdf::6                       1                       # What write queue length does an incoming req see
system.mem_ctrls.wrQLenPdf::7                       1                       # What write queue length does an incoming req see
system.mem_ctrls.wrQLenPdf::8                       1                       # What write queue length does an incoming req see
system.mem_ctrls.wrQLenPdf::9                       1                       # What write queue length does an incoming req see
system.mem_ctrls.wrQLenPdf::10                      1                       # What write queue length does an incoming req see
system.mem_ctrls.wrQLenPdf::11                      1                       # What write queue length does an incoming req see
system.mem_ctrls.wrQLenPdf::12                      1                       # What write queue length does an incoming req see
system.mem_ctrls.wrQLenPdf::13                      1                       # What write queue length does an incoming req see
system.mem_ctrls.wrQLenPdf::14                      1                       # What write queue length does an incoming req see
system.mem_ctrls.wrQLenPdf::15                     47                       # What write queue length does an incoming req see
system.mem_ctrls.wrQLenPdf::16                     46                       # What write queue length does an incoming req see
system.mem_ctrls.wrQLenPdf::17                     87                       # What write queue length does an incoming req see
system.mem_ctrls.wrQLenPdf::18                    102                       # What write queue length does an incoming req see
system.mem_ctrls.wrQLenPdf::19                    106                       # What write queue length does an incoming req see
system.mem_ctrls.wrQLenPdf::20                    109                       # What write queue length does an incoming req see
system.mem_ctrls.wrQLenPdf::21                    111                       # What write queue length does an incoming req see
system.mem_ctrls.wrQLenPdf::22                    107                       # What write queue length does an incoming req see
system.mem_ctrls.wrQLenPdf::23                    106                       # What write queue length does an incoming req see
system.mem_ctrls.wrQLenPdf::24                    108                       # What write queue length does an incoming req see
system.mem_ctrls.wrQLenPdf::25                    111                       # What write queue length does an incoming req see
system.mem_ctrls.wrQLenPdf::26                    110                       # What write queue length does an incoming req see
system.mem_ctrls.wrQLenPdf::27                    111                       # What write queue length does an incoming req see
system.mem_ctrls.wrQLenPdf::28                    107                       # What write queue length does an incoming req see
system.mem_ctrls.wrQLenPdf::29                    109                       # What write queue length does an incoming req see
system.mem_ctrls.wrQLenPdf::30                    106                       # What write queue length does an incoming req see
system.mem_ctrls.wrQLenPdf::31                    106                       # What write queue length does an incoming req see
system.mem_ctrls.wrQLenPdf::32                    106                       # What write queue length does an incoming req see
system.mem_ctrls.wrQLenPdf::33                      2                       # What write queue length does an incoming req see
system.mem_ctrls.wrQLenPdf::34                      0                       # What write queue length does an incoming req see
system.mem_ctrls.wrQLenPdf::35                      0                       # What write queue length does an incoming req see
system.mem_ctrls.wrQLenPdf::36                      0                       # What write queue length does an incoming req see
system.mem_ctrls.wrQLenPdf::37                      0                       # What write queue length does an incoming req see
system.mem_ctrls.wrQLenPdf::38                      0                       # What write queue length does an incoming req see
system.mem_ctrls.wrQLenPdf::39                      0                       # What write queue length does an incoming req see
system.mem_ctrls.wrQLenPdf::40                      0                       # What write queue length does an incoming req see
system.mem_ctrls.wrQLenPdf::41                      0                       # What write queue length does an incoming req see
system.mem_ctrls.wrQLenPdf::42                      0                       # What write queue length does an incoming req see
system.mem_ctrls.wrQLenPdf::43                      0                       # What write queue length does an incoming req see
system.mem_ctrls.wrQLenPdf::44                      0                       # What write queue length does an incoming req see
system.mem_ctrls.wrQLenPdf::45                      0                       # What write queue length does an incoming req see
system.mem_ctrls.wrQLenPdf::46                      0                       # What write queue length does an incoming req see
system.mem_ctrls.wrQLenPdf::47                      0                       # What write queue length does an incoming req see
system.mem_ctrls.wrQLenPdf::48                      0                       # What write queue length does an incoming req see
system.mem_ctrls.wrQLenPdf::49                      0                       # What write queue length does an incoming req see
system.mem_ctrls.wrQLenPdf::50                      0                       # What write queue length does an incoming req see
system.mem_ctrls.wrQLenPdf::51                      0                       # What write queue length does an incoming req see
system.mem_ctrls.wrQLenPdf::52                      0                       # What write queue length does an incoming req see
system.mem_ctrls.wrQLenPdf::53                      0                       # What write queue length does an incoming req see
system.mem_ctrls.wrQLenPdf::54                      0                       # What write queue length does an incoming req see
system.mem_ctrls.wrQLenPdf::55                      0                       # What write queue length does an incoming req see
system.mem_ctrls.wrQLenPdf::56                      0                       # What write queue length does an incoming req see
system.mem_ctrls.wrQLenPdf::57                      0                       # What write queue length does an incoming req see
system.mem_ctrls.wrQLenPdf::58                      0                       # What write queue length does an incoming req see
system.mem_ctrls.wrQLenPdf::59                      0                       # What write queue length does an incoming req see
system.mem_ctrls.wrQLenPdf::60                      0                       # What write queue length does an incoming req see
system.mem_ctrls.wrQLenPdf::61                      0                       # What write queue length does an incoming req see
system.mem_ctrls.wrQLenPdf::62                      0                       # What write queue length does an incoming req see
system.mem_ctrls.wrQLenPdf::63                      0                       # What write queue length does an incoming req see
system.mem_ctrls.bytesPerActivate::samples         1703                       # Bytes accessed per row activation
system.mem_ctrls.bytesPerActivate::mean    272.310041                       # Bytes accessed per row activation
system.mem_ctrls.bytesPerActivate::gmean   194.806029                       # Bytes accessed per row activation
system.mem_ctrls.bytesPerActivate::stdev   250.485362                       # Bytes accessed per row activation
system.mem_ctrls.bytesPerActivate::0-127          395     23.19%     23.19% # Bytes accessed per row activation
system.mem_ctrls.bytesPerActivate::128-255          549     32.24%     55.43% # Bytes accessed per row activation
system.mem_ctrls.bytesPerActivate::256-383          424     24.90%     80.33% # Bytes accessed per row activation
system.mem_ctrls.bytesPerActivate::384-511          104      6.11%     86.44% # Bytes accessed per row activation
system.mem_ctrls.bytesPerActivate::512-639           58      3.41%     89.84% # Bytes accessed per row activation
system.mem_ctrls.bytesPerActivate::640-767           28      1.64%     91.49% # Bytes accessed per row activation
system.mem_ctrls.bytesPerActivate::768-895           25      1.47%     92.95% # Bytes accessed per row activation
system.mem_ctrls.bytesPerActivate::896-1023           19      1.12%     94.07% # Bytes accessed per row activation
system.mem_ctrls.bytesPerActivate::1024-1151          101      5.93%    100.00% # Bytes accessed per row activation
system.mem_ctrls.bytesPerActivate::total         1703                       # Bytes accessed per row activation
system.mem_ctrls.rdPerTurnAround::samples          106                       # Reads before turning the bus around for writes
system.mem_ctrls.rdPerTurnAround::mean      51.349057                       # Reads before turning the bus around for writes
system.mem_ctrls.rdPerTurnAround::gmean     32.919755                       # Reads before turning the bus around for writes
system.mem_ctrls.rdPerTurnAround::stdev    169.942346                       # Reads before turning the bus around for writes
system.mem_ctrls.rdPerTurnAround::0-63             94     88.68%     88.68% # Reads before turning the bus around for writes
system.mem_ctrls.rdPerTurnAround::64-127           11     10.38%     99.06% # Reads before turning the bus around for writes
system.mem_ctrls.rdPerTurnAround::1728-1791            1      0.94%    100.00% # Reads before turning the bus around for writes
system.mem_ctrls.rdPerTurnAround::total           106                       # Reads before turning the bus around for writes
system.mem_ctrls.wrPerTurnAround::samples          106                       # Writes before turning the bus around for reads
system.mem_ctrls.wrPerTurnAround::mean      16.943396                       # Writes before turning the bus around for reads
system.mem_ctrls.wrPerTurnAround::gmean     16.909025                       # Writes before turning the bus around for reads
system.mem_ctrls.wrPerTurnAround::stdev      1.093968                       # Writes before turning the bus around for reads
system.mem_ctrls.wrPerTurnAround::16               59     55.66%     55.66% # Writes before turning the bus around for reads
system.mem_ctrls.wrPerTurnAround::18               42     39.62%     95.28% # Writes before turning the bus around for reads
system.mem_ctrls.wrPerTurnAround::19                4      3.77%     99.06% # Writes before turning the bus around for reads
system.mem_ctrls.wrPerTurnAround::20                1      0.94%    100.00% # Writes before turning the bus around for reads
system.mem_ctrls.wrPerTurnAround::total           106                       # Writes before turning the bus around for reads
system.mem_ctrls.totQLat                     59990750                       # Total ticks spent queuing
system.mem_ctrls.totMemAccLat               162197000                       # Total ticks spent from burst creation until serviced by the DRAM
system.mem_ctrls.totBusLat                   27255000                       # Total ticks spent in databus transfers
system.mem_ctrls.avgQLat                     11005.46                       # Average queueing delay per DRAM burst
system.mem_ctrls.avgBusLat                    5000.00                       # Average bus latency per DRAM burst
system.mem_ctrls.avgMemAccLat                29755.46                       # Average memory access latency per DRAM burst
system.mem_ctrls.avgRdBW                        93.68                       # Average DRAM read bandwidth in MiByte/s
system.mem_ctrls.avgWrBW                        30.87                       # Average achieved write bandwidth in MiByte/s
system.mem_ctrls.avgRdBWSys                     93.70                       # Average system read bandwidth in MiByte/s
system.mem_ctrls.avgWrBWSys                     31.14                       # Average system write bandwidth in MiByte/s
system.mem_ctrls.peakBW                      12800.00                       # Theoretical peak bandwidth in MiByte/s
system.mem_ctrls.busUtil                         0.97                       # Data bus utilization in percentage
system.mem_ctrls.busUtilRead                     0.73                       # Data bus utilization in percentage for reads
system.mem_ctrls.busUtilWrite                    0.24                       # Data bus utilization in percentage for writes
system.mem_ctrls.avgRdQLen                       1.07                       # Average read queue length when enqueuing
system.mem_ctrls.avgWrQLen                      24.10                       # Average write queue length when enqueuing
system.mem_ctrls.readRowHits                     4224                       # Number of row buffer hits during reads
system.mem_ctrls.writeRowHits                    1319                       # Number of row buffer hits during writes
system.mem_ctrls.readRowHitRate                 77.49                       # Row buffer hit rate for reads
system.mem_ctrls.writeRowHitRate                72.79                       # Row buffer hit rate for writes
system.mem_ctrls.avgGap                     512516.66                       # Average gap between requests
system.mem_ctrls.pageHitRate                    76.32                       # Row buffer hit rate, read and write combined
system.mem_ctrls_0.actEnergy                  5677560                       # Energy for activate commands per rank (pJ)
system.mem_ctrls_0.preEnergy                  3097875                       # Energy for precharge commands per rank (pJ)
system.mem_ctrls_0.readEnergy                18759000                       # Energy for read commands per rank (pJ)
system.mem_ctrls_0.writeEnergy                5423760                       # Energy for write commands per rank (pJ)
system.mem_ctrls_0.refreshEnergy            243091680                       # Energy for refresh commands per rank (pJ)
system.mem_ctrls_0.actBackEnergy           1010976795                       # Energy for active background per rank (pJ)
system.mem_ctrls_0.preBackEnergy           1346430750                       # Energy for precharge background per rank (pJ)
system.mem_ctrls_0.totalEnergy             2633457420                       # Total energy per rank (pJ)
system.mem_ctrls_0.averagePower            707.521631                       # Core power per rank (mW)
system.mem_ctrls_0.memoryStateTime::IDLE   2235088750                       # Time in different power states
system.mem_ctrls_0.memoryStateTime::REF     124280000                       # Time in different power states
system.mem_ctrls_0.memoryStateTime::PRE_PDN            0                       # Time in different power states
system.mem_ctrls_0.memoryStateTime::ACT    1363574750                       # Time in different power states
system.mem_ctrls_0.memoryStateTime::ACT_PDN            0                       # Time in different power states
system.mem_ctrls_1.actEnergy                  7197120                       # Energy for activate commands per rank (pJ)
system.mem_ctrls_1.preEnergy                  3927000                       # Energy for precharge commands per rank (pJ)
system.mem_ctrls_1.readEnergy                23751000                       # Energy for read commands per rank (pJ)
system.mem_ctrls_1.writeEnergy                6214320                       # Energy for write commands per rank (pJ)
system.mem_ctrls_1.refreshEnergy            243091680                       # Energy for refresh commands per rank (pJ)
system.mem_ctrls_1.actBackEnergy           1588042800                       # Energy for active background per rank (pJ)
system.mem_ctrls_1.preBackEnergy            840224250                       # Energy for precharge background per rank (pJ)
system.mem_ctrls_1.totalEnergy             2712448170                       # Total energy per rank (pJ)
system.mem_ctrls_1.averagePower            728.746487                       # Core power per rank (mW)
system.mem_ctrls_1.memoryStateTime::IDLE   1388929500                       # Time in different power states
system.mem_ctrls_1.memoryStateTime::REF     124280000                       # Time in different power states
system.mem_ctrls_1.memoryStateTime::PRE_PDN            0                       # Time in different power states
system.mem_ctrls_1.memoryStateTime::ACT    2208878000                       # Time in different power states
system.mem_ctrls_1.memoryStateTime::ACT_PDN            0                       # Time in different power states
system.cpu.branchPred.lookups                  260259                       # Number of BP lookups
system.cpu.branchPred.condPredicted             45227                       # Number of conditional branches predicted
system.cpu.branchPred.condIncorrect              2479                       # Number of conditional branches incorrect
system.cpu.branchPred.BTBLookups               148357                       # Number of BTB lookups
system.cpu.branchPred.BTBHits                  142894                       # Number of BTB hits
system.cpu.branchPred.BTBCorrect                    0                       # Number of correct BTB predictions (this stat may not work properly.
system.cpu.branchPred.BTBHitPct             96.317666                       # BTB Hit Percentage
system.cpu.branchPred.usedRAS                  106272                       # Number of times the RAS was used to get a target.
system.cpu.branchPred.RASInCorrect                 14                       # Number of incorrect RAS predictions.
system.cpu_voltage_domain.voltage                   1                       # Voltage in Volts
system.cpu_clk_domain.clock                       500                       # Clock period in ticks
system.cpu.dtb.fetch_hits                           0                       # ITB hits
system.cpu.dtb.fetch_misses                         0                       # ITB misses
system.cpu.dtb.fetch_acv                            0                       # ITB acv
system.cpu.dtb.fetch_accesses                       0                       # ITB accesses
system.cpu.dtb.read_hits                       471198                       # DTB read hits
system.cpu.dtb.read_misses                        110                       # DTB read misses
system.cpu.dtb.read_acv                             1                       # DTB read access violations
system.cpu.dtb.read_accesses                   471308                       # DTB read accesses
system.cpu.dtb.write_hits                       56838                       # DTB write hits
system.cpu.dtb.write_misses                       169                       # DTB write misses
system.cpu.dtb.write_acv                            0                       # DTB write access violations
system.cpu.dtb.write_accesses                   57007                       # DTB write accesses
system.cpu.dtb.data_hits                       528036                       # DTB hits
system.cpu.dtb.data_misses                        279                       # DTB misses
system.cpu.dtb.data_acv                             1                       # DTB access violations
system.cpu.dtb.data_accesses                   528315                       # DTB accesses
system.cpu.itb.fetch_hits                      615410                       # ITB hits
system.cpu.itb.fetch_misses                       113                       # ITB misses
system.cpu.itb.fetch_acv                            0                       # ITB acv
system.cpu.itb.fetch_accesses                  615523                       # ITB accesses
system.cpu.itb.read_hits                            0                       # DTB read hits
system.cpu.itb.read_misses                          0                       # DTB read misses
system.cpu.itb.read_acv                             0                       # DTB read access violations
system.cpu.itb.read_accesses                        0                       # DTB read accesses
system.cpu.itb.write_hits                           0                       # DTB write hits
system.cpu.itb.write_misses                         0                       # DTB write misses
system.cpu.itb.write_acv                            0                       # DTB write access violations
system.cpu.itb.write_accesses                       0                       # DTB write accesses
system.cpu.itb.data_hits                            0                       # DTB hits
system.cpu.itb.data_misses                          0                       # DTB misses
system.cpu.itb.data_acv                             0                       # DTB access violations
system.cpu.itb.data_accesses                        0                       # DTB accesses
system.cpu.workload.num_syscalls                   59                       # Number of system calls
system.cpu.numCycles                          7448156                       # number of cpu cycles simulated
system.cpu.numWorkItemsStarted                      0                       # number of work items this cpu started
system.cpu.numWorkItemsCompleted                    0                       # number of work items this cpu completed
system.cpu.fetch.icacheStallCycles             831330                       # Number of cycles fetch is stalled on an Icache miss
system.cpu.fetch.Insts                        5049190                       # Number of instructions fetch has processed
system.cpu.fetch.Branches                      260259                       # Number of branches that fetch encountered
system.cpu.fetch.predictedBranches             249166                       # Number of branches that fetch has predicted taken
system.cpu.fetch.Cycles                       6444562                       # Number of cycles fetch has run and was not squashing or blocked
system.cpu.fetch.SquashCycles                    5346                       # Number of cycles fetch has spent squashing
system.cpu.fetch.MiscStallCycles                   77                       # Number of cycles fetch has spent waiting on interrupts, or bad addresses, or out of MSHRs
system.cpu.fetch.PendingTrapStallCycles          4431                       # Number of stall cycles due to pending traps
system.cpu.fetch.IcacheWaitRetryStallCycles           22                       # Number of stall cycles due to full MSHR
system.cpu.fetch.CacheLines                    615410                       # Number of cache lines fetched
system.cpu.fetch.IcacheSquashes                  2161                       # Number of outstanding Icache misses that were squashed
system.cpu.fetch.rateDist::samples            7283095                       # Number of instructions fetched each cycle (Total)
system.cpu.fetch.rateDist::mean              0.693275                       # Number of instructions fetched each cycle (Total)
system.cpu.fetch.rateDist::stdev             1.894332                       # Number of instructions fetched each cycle (Total)
system.cpu.fetch.rateDist::underflows               0      0.00%      0.00% # Number of instructions fetched each cycle (Total)
system.cpu.fetch.rateDist::0                  6218294     85.38%     85.38% # Number of instructions fetched each cycle (Total)
system.cpu.fetch.rateDist::1                     3819      0.05%     85.43% # Number of instructions fetched each cycle (Total)
system.cpu.fetch.rateDist::2                   290533      3.99%     89.42% # Number of instructions fetched each cycle (Total)
system.cpu.fetch.rateDist::3                     2937      0.04%     89.46% # Number of instructions fetched each cycle (Total)
system.cpu.fetch.rateDist::4                   362682      4.98%     94.44% # Number of instructions fetched each cycle (Total)
system.cpu.fetch.rateDist::5                     2616      0.04%     94.48% # Number of instructions fetched each cycle (Total)
system.cpu.fetch.rateDist::6                   111901      1.54%     96.01% # Number of instructions fetched each cycle (Total)
system.cpu.fetch.rateDist::7                     2224      0.03%     96.04% # Number of instructions fetched each cycle (Total)
system.cpu.fetch.rateDist::8                   288089      3.96%    100.00% # Number of instructions fetched each cycle (Total)
system.cpu.fetch.rateDist::overflows                0      0.00%    100.00% # Number of instructions fetched each cycle (Total)
system.cpu.fetch.rateDist::min_value                0                       # Number of instructions fetched each cycle (Total)
system.cpu.fetch.rateDist::max_value                8                       # Number of instructions fetched each cycle (Total)
system.cpu.fetch.rateDist::total              7283095                       # Number of instructions fetched each cycle (Total)
system.cpu.fetch.branchRate                  0.034943                       # Number of branch fetches per cycle
system.cpu.fetch.rate                        0.677911                       # Number of inst fetches per cycle
system.cpu.decode.IdleCycles                   414690                       # Number of cycles decode is idle
system.cpu.decode.BlockedCycles               6225049                       # Number of cycles decode is blocked
system.cpu.decode.RunCycles                     35096                       # Number of cycles decode is running
system.cpu.decode.UnblockCycles                606431                       # Number of cycles decode is unblocking
system.cpu.decode.SquashCycles                   1829                       # Number of cycles decode is squashing
system.cpu.decode.BranchResolved               107624                       # Number of times decode resolved a branch
system.cpu.decode.BranchMispred                   854                       # Number of times decode detected a branch misprediction
system.cpu.decode.DecodedInsts                5038896                       # Number of instructions handled by decode
system.cpu.decode.SquashedInsts                  3305                       # Number of squashed instructions handled by decode
system.cpu.rename.SquashCycles                   1829                       # Number of cycles rename is squashing
system.cpu.rename.IdleCycles                   518166                       # Number of cycles rename is idle
system.cpu.rename.BlockCycles                 3090931                       # Number of cycles rename is blocking
system.cpu.rename.serializeStallCycles          16761                       # count of cycles rename stalled for serializing inst
system.cpu.rename.RunCycles                    417132                       # Number of cycles rename is running
system.cpu.rename.UnblockCycles               3238276                       # Number of cycles rename is unblocking
system.cpu.rename.RenamedInsts                5036767                       # Number of instructions processed by rename
system.cpu.rename.ROBFullEvents                  1028                       # Number of times rename has blocked due to ROB full
system.cpu.rename.IQFullEvents                3066898                       # Number of times rename has blocked due to IQ full
system.cpu.rename.LQFullEvents                    227                       # Number of times rename has blocked due to LQ full
system.cpu.rename.SQFullEvents                  49539                       # Number of times rename has blocked due to SQ full
system.cpu.rename.RenamedOperands             4810028                       # Number of destination operands rename has renamed
system.cpu.rename.RenameLookups               7270445                       # Number of register rename lookups that rename has made
system.cpu.rename.int_rename_lookups          1032610                       # Number of integer rename lookups
system.cpu.rename.fp_rename_lookups           6237754                       # Number of floating rename lookups
system.cpu.rename.CommittedMaps               4794249                       # Number of HB maps that are committed
system.cpu.rename.UndoneMaps                    15678                       # Number of HB maps that are undone due to squashing
system.cpu.rename.serializingInsts                470                       # count of serializing insts renamed
system.cpu.rename.tempSerializingInsts            376                       # count of temporary serializing insts renamed
system.cpu.rename.skidInsts                   4146111                       # count of insts added to the skid buffer
system.cpu.memDep0.insertedLoads               467840                       # Number of loads inserted to the mem dependence unit.
system.cpu.memDep0.insertedStores               57901                       # Number of stores inserted to the mem dependence unit.
system.cpu.memDep0.conflictingLoads              1583                       # Number of conflicting loads.
system.cpu.memDep0.conflictingStores              533                       # Number of conflicting stores.
system.cpu.iq.iqInstsAdded                    5017974                       # Number of instructions added to the IQ (excludes non-spec)
system.cpu.iq.iqNonSpecInstsAdded                 686                       # Number of non-speculative instructions added to the IQ
system.cpu.iq.iqInstsIssued                   5018426                       # Number of instructions issued
system.cpu.iq.iqSquashedInstsIssued               135                       # Number of squashed instructions issued
system.cpu.iq.iqSquashedInstsExamined           18564                       # Number of squashed instructions iterated over during squash; mainly for profiling
system.cpu.iq.iqSquashedOperandsExamined         8443                       # Number of squashed operands that are examined and possibly removed from graph
system.cpu.iq.iqSquashedNonSpecRemoved             45                       # Number of squashed non-spec instructions that were removed
system.cpu.iq.issued_per_cycle::samples       7283095                       # Number of insts issued each cycle
system.cpu.iq.issued_per_cycle::mean         0.689051                       # Number of insts issued each cycle
system.cpu.iq.issued_per_cycle::stdev        0.799127                       # Number of insts issued each cycle
system.cpu.iq.issued_per_cycle::underflows            0      0.00%      0.00% # Number of insts issued each cycle
system.cpu.iq.issued_per_cycle::0             3446653     47.32%     47.32% # Number of insts issued each cycle
system.cpu.iq.issued_per_cycle::1             2931885     40.26%     87.58% # Number of insts issued each cycle
system.cpu.iq.issued_per_cycle::2              676878      9.29%     96.87% # Number of insts issued each cycle
system.cpu.iq.issued_per_cycle::3              202585      2.78%     99.66% # Number of insts issued each cycle
system.cpu.iq.issued_per_cycle::4                8439      0.12%     99.77% # Number of insts issued each cycle
system.cpu.iq.issued_per_cycle::5               11451      0.16%     99.93% # Number of insts issued each cycle
system.cpu.iq.issued_per_cycle::6                3072      0.04%     99.97% # Number of insts issued each cycle
system.cpu.iq.issued_per_cycle::7                1469      0.02%     99.99% # Number of insts issued each cycle
system.cpu.iq.issued_per_cycle::8                 663      0.01%    100.00% # Number of insts issued each cycle
system.cpu.iq.issued_per_cycle::overflows            0      0.00%    100.00% # Number of insts issued each cycle
system.cpu.iq.issued_per_cycle::min_value            0                       # Number of insts issued each cycle
system.cpu.iq.issued_per_cycle::max_value            8                       # Number of insts issued each cycle
system.cpu.iq.issued_per_cycle::total         7283095                       # Number of insts issued each cycle
system.cpu.iq.fu_full::No_OpClass                   0      0.00%      0.00% # attempts to use FU when none available
system.cpu.iq.fu_full::IntAlu                     135      0.56%      0.56% # attempts to use FU when none available
system.cpu.iq.fu_full::IntMult                      0      0.00%      0.56% # attempts to use FU when none available
system.cpu.iq.fu_full::IntDiv                       0      0.00%      0.56% # attempts to use FU when none available
system.cpu.iq.fu_full::FloatAdd                     0      0.00%      0.56% # attempts to use FU when none available
system.cpu.iq.fu_full::FloatCmp                     0      0.00%      0.56% # attempts to use FU when none available
system.cpu.iq.fu_full::FloatCvt                     0      0.00%      0.56% # attempts to use FU when none available
system.cpu.iq.fu_full::FloatMult                19100     78.76%     79.32% # attempts to use FU when none available
system.cpu.iq.fu_full::FloatDiv                     0      0.00%     79.32% # attempts to use FU when none available
system.cpu.iq.fu_full::FloatSqrt                    0      0.00%     79.32% # attempts to use FU when none available
system.cpu.iq.fu_full::SimdAdd                      0      0.00%     79.32% # attempts to use FU when none available
system.cpu.iq.fu_full::SimdAddAcc                   0      0.00%     79.32% # attempts to use FU when none available
system.cpu.iq.fu_full::SimdAlu                      0      0.00%     79.32% # attempts to use FU when none available
system.cpu.iq.fu_full::SimdCmp                      0      0.00%     79.32% # attempts to use FU when none available
system.cpu.iq.fu_full::SimdCvt                      0      0.00%     79.32% # attempts to use FU when none available
system.cpu.iq.fu_full::SimdMisc                     0      0.00%     79.32% # attempts to use FU when none available
system.cpu.iq.fu_full::SimdMult                     0      0.00%     79.32% # attempts to use FU when none available
system.cpu.iq.fu_full::SimdMultAcc                  0      0.00%     79.32% # attempts to use FU when none available
system.cpu.iq.fu_full::SimdShift                    0      0.00%     79.32% # attempts to use FU when none available
system.cpu.iq.fu_full::SimdShiftAcc                 0      0.00%     79.32% # attempts to use FU when none available
system.cpu.iq.fu_full::SimdSqrt                     0      0.00%     79.32% # attempts to use FU when none available
system.cpu.iq.fu_full::SimdFloatAdd                 0      0.00%     79.32% # attempts to use FU when none available
system.cpu.iq.fu_full::SimdFloatAlu                 0      0.00%     79.32% # attempts to use FU when none available
system.cpu.iq.fu_full::SimdFloatCmp                 0      0.00%     79.32% # attempts to use FU when none available
system.cpu.iq.fu_full::SimdFloatCvt                 0      0.00%     79.32% # attempts to use FU when none available
system.cpu.iq.fu_full::SimdFloatDiv                 0      0.00%     79.32% # attempts to use FU when none available
system.cpu.iq.fu_full::SimdFloatMisc                0      0.00%     79.32% # attempts to use FU when none available
system.cpu.iq.fu_full::SimdFloatMult                0      0.00%     79.32% # attempts to use FU when none available
system.cpu.iq.fu_full::SimdFloatMultAcc             0      0.00%     79.32% # attempts to use FU when none available
system.cpu.iq.fu_full::SimdFloatSqrt                0      0.00%     79.32% # attempts to use FU when none available
system.cpu.iq.fu_full::MemRead                   2918     12.03%     91.35% # attempts to use FU when none available
system.cpu.iq.fu_full::MemWrite                  2097      8.65%    100.00% # attempts to use FU when none available
system.cpu.iq.fu_full::IprAccess                    0      0.00%    100.00% # attempts to use FU when none available
system.cpu.iq.fu_full::InstPrefetch                 0      0.00%    100.00% # attempts to use FU when none available
system.cpu.iq.FU_type_0::No_OpClass                 0      0.00%      0.00% # Type of FU issued
system.cpu.iq.FU_type_0::IntAlu                518211     10.33%     10.33% # Type of FU issued
system.cpu.iq.FU_type_0::IntMult                  143      0.00%     10.33% # Type of FU issued
system.cpu.iq.FU_type_0::IntDiv                     0      0.00%     10.33% # Type of FU issued
system.cpu.iq.FU_type_0::FloatAdd             2647405     52.75%     63.08% # Type of FU issued
system.cpu.iq.FU_type_0::FloatCmp                   8      0.00%     63.08% # Type of FU issued
system.cpu.iq.FU_type_0::FloatCvt                   0      0.00%     63.08% # Type of FU issued
system.cpu.iq.FU_type_0::FloatMult            1323541     26.37%     89.46% # Type of FU issued
system.cpu.iq.FU_type_0::FloatDiv                   0      0.00%     89.46% # Type of FU issued
system.cpu.iq.FU_type_0::FloatSqrt                  0      0.00%     89.46% # Type of FU issued
system.cpu.iq.FU_type_0::SimdAdd                    0      0.00%     89.46% # Type of FU issued
system.cpu.iq.FU_type_0::SimdAddAcc                 0      0.00%     89.46% # Type of FU issued
system.cpu.iq.FU_type_0::SimdAlu                    0      0.00%     89.46% # Type of FU issued
system.cpu.iq.FU_type_0::SimdCmp                    0      0.00%     89.46% # Type of FU issued
system.cpu.iq.FU_type_0::SimdCvt                    0      0.00%     89.46% # Type of FU issued
system.cpu.iq.FU_type_0::SimdMisc                   0      0.00%     89.46% # Type of FU issued
system.cpu.iq.FU_type_0::SimdMult                   0      0.00%     89.46% # Type of FU issued
system.cpu.iq.FU_type_0::SimdMultAcc                0      0.00%     89.46% # Type of FU issued
system.cpu.iq.FU_type_0::SimdShift                  0      0.00%     89.46% # Type of FU issued
system.cpu.iq.FU_type_0::SimdShiftAcc               0      0.00%     89.46% # Type of FU issued
system.cpu.iq.FU_type_0::SimdSqrt                   0      0.00%     89.46% # Type of FU issued
system.cpu.iq.FU_type_0::SimdFloatAdd               0      0.00%     89.46% # Type of FU issued
system.cpu.iq.FU_type_0::SimdFloatAlu               0      0.00%     89.46% # Type of FU issued
system.cpu.iq.FU_type_0::SimdFloatCmp               0      0.00%     89.46% # Type of FU issued
system.cpu.iq.FU_type_0::SimdFloatCvt               0      0.00%     89.46% # Type of FU issued
system.cpu.iq.FU_type_0::SimdFloatDiv               0      0.00%     89.46% # Type of FU issued
system.cpu.iq.FU_type_0::SimdFloatMisc              0      0.00%     89.46% # Type of FU issued
system.cpu.iq.FU_type_0::SimdFloatMult              0      0.00%     89.46% # Type of FU issued
system.cpu.iq.FU_type_0::SimdFloatMultAcc            0      0.00%     89.46% # Type of FU issued
system.cpu.iq.FU_type_0::SimdFloatSqrt              0      0.00%     89.46% # Type of FU issued
system.cpu.iq.FU_type_0::MemRead               471919      9.40%     98.86% # Type of FU issued
system.cpu.iq.FU_type_0::MemWrite               57199      1.14%    100.00% # Type of FU issued
system.cpu.iq.FU_type_0::IprAccess                  0      0.00%    100.00% # Type of FU issued
system.cpu.iq.FU_type_0::InstPrefetch               0      0.00%    100.00% # Type of FU issued
system.cpu.iq.FU_type_0::total                5018426                       # Type of FU issued
system.cpu.iq.rate                           0.673781                       # Inst issue rate
system.cpu.iq.fu_busy_cnt                       24250                       # FU busy when requested
system.cpu.iq.fu_busy_rate                   0.004832                       # FU busy rate (busy events/executed inst)
system.cpu.iq.int_inst_queue_reads            8465903                       # Number of integer instruction queue reads
system.cpu.iq.int_inst_queue_writes            605431                       # Number of integer instruction queue writes
system.cpu.iq.int_inst_queue_wakeup_accesses       581793                       # Number of integer instruction queue wakeup accesses
system.cpu.iq.fp_inst_queue_reads             8878428                       # Number of floating instruction queue reads
system.cpu.iq.fp_inst_queue_writes            4431865                       # Number of floating instruction queue writes
system.cpu.iq.fp_inst_queue_wakeup_accesses      4429607                       # Number of floating instruction queue wakeup accesses
system.cpu.iq.int_alu_accesses                 593879                       # Number of integer alu accesses
system.cpu.iq.fp_alu_accesses                 4448797                       # Number of floating point alu accesses
system.cpu.iew.lsq.thread0.forwLoads             1441                       # Number of loads that had data forwarded from stores
system.cpu.iew.lsq.thread0.invAddrLoads             0                       # Number of loads ignored due to an invalid address
system.cpu.iew.lsq.thread0.squashedLoads         3224                       # Number of loads squashed
system.cpu.iew.lsq.thread0.ignoredResponses           33                       # Number of memory responses ignored because the instruction is squashed
system.cpu.iew.lsq.thread0.memOrderViolation           80                       # Number of memory ordering violations
system.cpu.iew.lsq.thread0.squashedStores         2378                       # Number of stores squashed
system.cpu.iew.lsq.thread0.invAddrSwpfs             0                       # Number of software prefetches ignored due to an invalid address
system.cpu.iew.lsq.thread0.blockedLoads             0                       # Number of blocked loads due to partial load-store forwarding
system.cpu.iew.lsq.thread0.rescheduledLoads           75                       # Number of loads that were rescheduled
system.cpu.iew.lsq.thread0.cacheBlocked          4745                       # Number of times an access to memory failed due to the cache being blocked
system.cpu.iew.iewIdleCycles                        0                       # Number of cycles IEW is idle
system.cpu.iew.iewSquashCycles                   1829                       # Number of cycles IEW is squashing
system.cpu.iew.iewBlockCycles                  750395                       # Number of cycles IEW is blocking
system.cpu.iew.iewUnblockCycles                233514                       # Number of cycles IEW is unblocking
system.cpu.iew.iewDispatchedInsts             5033449                       # Number of instructions dispatched to IQ
system.cpu.iew.iewDispSquashedInsts               505                       # Number of squashed instructions skipped by dispatch
system.cpu.iew.iewDispLoadInsts                467840                       # Number of dispatched load instructions
system.cpu.iew.iewDispStoreInsts                57901                       # Number of dispatched store instructions
system.cpu.iew.iewDispNonSpecInsts                372                       # Number of dispatched non-speculative instructions
system.cpu.iew.iewIQFullEvents                  95448                       # Number of times the IQ has become full, causing a stall
system.cpu.iew.iewLSQFullEvents                 17115                       # Number of times the LSQ has become full, causing a stall
system.cpu.iew.memOrderViolationEvents             80                       # Number of memory order violations
system.cpu.iew.predictedTakenIncorrect            431                       # Number of branches that were predicted taken incorrectly
system.cpu.iew.predictedNotTakenIncorrect         1405                       # Number of branches that were predicted not taken incorrectly
system.cpu.iew.branchMispredicts                 1836                       # Number of branch mispredicts detected at execute
system.cpu.iew.iewExecutedInsts               5016804                       # Number of executed instructions
system.cpu.iew.iewExecLoadInsts                471309                       # Number of load instructions executed
system.cpu.iew.iewExecSquashedInsts              1621                       # Number of squashed instructions skipped in execute
system.cpu.iew.exec_swp                             0                       # number of swp insts executed
system.cpu.iew.exec_nop                         14789                       # number of nop insts executed
system.cpu.iew.exec_refs                       528317                       # number of memory reference insts executed
system.cpu.iew.exec_branches                   257111                       # Number of branches executed
system.cpu.iew.exec_stores                      57008                       # Number of stores executed
system.cpu.iew.exec_rate                     0.673563                       # Inst execution rate
system.cpu.iew.wb_sent                        5011860                       # cumulative count of insts sent to commit
system.cpu.iew.wb_count                       5011400                       # cumulative count of insts written-back
system.cpu.iew.wb_producers                   4231943                       # num instructions producing a value
system.cpu.iew.wb_consumers                   5225472                       # num instructions consuming a value
system.cpu.iew.wb_penalized                         0                       # number of instrctions required to write to 'other' IQ
system.cpu.iew.wb_rate                       0.672838                       # insts written-back per cycle
system.cpu.iew.wb_fanout                     0.809868                       # average fanout of values written-back
system.cpu.iew.wb_penalized_rate                    0                       # fraction of instructions written-back that wrote to 'other' IQ
system.cpu.commit.commitSquashedInsts           19591                       # The number of squashed insts skipped by commit
system.cpu.commit.commitNonSpecStalls             641                       # The number of times commit has been forced to stall to communicate backwards
system.cpu.commit.branchMispredicts              1635                       # The number of times a branch was mispredicted
system.cpu.commit.committed_per_cycle::samples      7279558                       # Number of insts commited each cycle
system.cpu.commit.committed_per_cycle::mean     0.688710                       # Number of insts commited each cycle
system.cpu.commit.committed_per_cycle::stdev     1.307370                       # Number of insts commited each cycle
system.cpu.commit.committed_per_cycle::underflows            0      0.00%      0.00% # Number of insts commited each cycle
system.cpu.commit.committed_per_cycle::0      4476933     61.50%     61.50% # Number of insts commited each cycle
system.cpu.commit.committed_per_cycle::1      1722528     23.66%     85.16% # Number of insts commited each cycle
system.cpu.commit.committed_per_cycle::2       724720      9.96%     95.12% # Number of insts commited each cycle
system.cpu.commit.committed_per_cycle::3       158873      2.18%     97.30% # Number of insts commited each cycle
system.cpu.commit.committed_per_cycle::4         4220      0.06%     97.36% # Number of insts commited each cycle
system.cpu.commit.committed_per_cycle::5        53324      0.73%     98.09% # Number of insts commited each cycle
system.cpu.commit.committed_per_cycle::6         1923      0.03%     98.12% # Number of insts commited each cycle
system.cpu.commit.committed_per_cycle::7        26420      0.36%     98.48% # Number of insts commited each cycle
system.cpu.commit.committed_per_cycle::8       110617      1.52%    100.00% # Number of insts commited each cycle
system.cpu.commit.committed_per_cycle::overflows            0      0.00%    100.00% # Number of insts commited each cycle
system.cpu.commit.committed_per_cycle::min_value            0                       # Number of insts commited each cycle
system.cpu.commit.committed_per_cycle::max_value            8                       # Number of insts commited each cycle
system.cpu.commit.committed_per_cycle::total      7279558                       # Number of insts commited each cycle
system.cpu.commit.committedInsts              5013501                       # Number of instructions committed
system.cpu.commit.committedOps                5013501                       # Number of ops (including micro ops) committed
system.cpu.commit.swp_count                         0                       # Number of s/w prefetches committed
system.cpu.commit.refs                         520131                       # Number of memory references committed
system.cpu.commit.loads                        464608                       # Number of loads committed
system.cpu.commit.membars                         292                       # Number of memory barriers committed
system.cpu.commit.branches                     254984                       # Number of branches committed
system.cpu.commit.fp_insts                    4428921                       # Number of committed floating point instructions.
system.cpu.commit.int_insts                   1027906                       # Number of committed integer instructions.
system.cpu.commit.function_calls               105675                       # Number of function calls committed.
system.cpu.commit.op_class_0::No_OpClass        13499      0.27%      0.27% # Class of committed instruction
system.cpu.commit.op_class_0::IntAlu           509022     10.15%     10.42% # Class of committed instruction
system.cpu.commit.op_class_0::IntMult             138      0.00%     10.43% # Class of committed instruction
system.cpu.commit.op_class_0::IntDiv                0      0.00%     10.43% # Class of committed instruction
system.cpu.commit.op_class_0::FloatAdd        2647019     52.80%     63.22% # Class of committed instruction
system.cpu.commit.op_class_0::FloatCmp              8      0.00%     63.22% # Class of committed instruction
system.cpu.commit.op_class_0::FloatCvt              0      0.00%     63.22% # Class of committed instruction
system.cpu.commit.op_class_0::FloatMult       1323392     26.40%     89.62% # Class of committed instruction
system.cpu.commit.op_class_0::FloatDiv              0      0.00%     89.62% # Class of committed instruction
system.cpu.commit.op_class_0::FloatSqrt             0      0.00%     89.62% # Class of committed instruction
system.cpu.commit.op_class_0::SimdAdd               0      0.00%     89.62% # Class of committed instruction
system.cpu.commit.op_class_0::SimdAddAcc            0      0.00%     89.62% # Class of committed instruction
system.cpu.commit.op_class_0::SimdAlu               0      0.00%     89.62% # Class of committed instruction
system.cpu.commit.op_class_0::SimdCmp               0      0.00%     89.62% # Class of committed instruction
system.cpu.commit.op_class_0::SimdCvt               0      0.00%     89.62% # Class of committed instruction
system.cpu.commit.op_class_0::SimdMisc              0      0.00%     89.62% # Class of committed instruction
system.cpu.commit.op_class_0::SimdMult              0      0.00%     89.62% # Class of committed instruction
system.cpu.commit.op_class_0::SimdMultAcc            0      0.00%     89.62% # Class of committed instruction
system.cpu.commit.op_class_0::SimdShift             0      0.00%     89.62% # Class of committed instruction
system.cpu.commit.op_class_0::SimdShiftAcc            0      0.00%     89.62% # Class of committed instruction
system.cpu.commit.op_class_0::SimdSqrt              0      0.00%     89.62% # Class of committed instruction
system.cpu.commit.op_class_0::SimdFloatAdd            0      0.00%     89.62% # Class of committed instruction
system.cpu.commit.op_class_0::SimdFloatAlu            0      0.00%     89.62% # Class of committed instruction
system.cpu.commit.op_class_0::SimdFloatCmp            0      0.00%     89.62% # Class of committed instruction
system.cpu.commit.op_class_0::SimdFloatCvt            0      0.00%     89.62% # Class of committed instruction
system.cpu.commit.op_class_0::SimdFloatDiv            0      0.00%     89.62% # Class of committed instruction
system.cpu.commit.op_class_0::SimdFloatMisc            0      0.00%     89.62% # Class of committed instruction
system.cpu.commit.op_class_0::SimdFloatMult            0      0.00%     89.62% # Class of committed instruction
system.cpu.commit.op_class_0::SimdFloatMultAcc            0      0.00%     89.62% # Class of committed instruction
system.cpu.commit.op_class_0::SimdFloatSqrt            0      0.00%     89.62% # Class of committed instruction
system.cpu.commit.op_class_0::MemRead          464900      9.27%     98.89% # Class of committed instruction
system.cpu.commit.op_class_0::MemWrite          55523      1.11%    100.00% # Class of committed instruction
system.cpu.commit.op_class_0::IprAccess             0      0.00%    100.00% # Class of committed instruction
system.cpu.commit.op_class_0::InstPrefetch            0      0.00%    100.00% # Class of committed instruction
system.cpu.commit.op_class_0::total           5013501                       # Class of committed instruction
system.cpu.commit.bw_lim_events                110617                       # number cycles where commit BW limit reached
system.cpu.rob.rob_reads                     12200304                       # The number of ROB reads
system.cpu.rob.rob_writes                    10069833                       # The number of ROB writes
system.cpu.timesIdled                            8540                       # Number of times that the entire CPU went into an idle state and unscheduled itself
system.cpu.idleCycles                          165061                       # Total number of cycles that the CPU has spent unscheduled due to idling
system.cpu.committedInsts                     5000002                       # Number of Instructions Simulated
system.cpu.committedOps                       5000002                       # Number of Ops (including micro ops) Simulated
system.cpu.cpi                               1.489631                       # CPI: Cycles Per Instruction
system.cpu.cpi_total                         1.489631                       # CPI: Total CPI of All Threads
system.cpu.ipc                               0.671307                       # IPC: Instructions Per Cycle
system.cpu.ipc_total                         0.671307                       # IPC: Total IPC of All Threads
system.cpu.int_regfile_reads                  1025468                       # number of integer regfile reads
system.cpu.int_regfile_writes                  399469                       # number of integer regfile writes
system.cpu.fp_regfile_reads                   6236407                       # number of floating regfile reads
system.cpu.fp_regfile_writes                  4403506                       # number of floating regfile writes
system.cpu.misc_regfile_reads                     661                       # number of misc regfile reads
system.cpu.misc_regfile_writes                    582                       # number of misc regfile writes
system.cpu.dcache.tags.replacements              4060                       # number of replacements
system.cpu.dcache.tags.tagsinuse           254.717818                       # Cycle average of tags in use
system.cpu.dcache.tags.total_refs              511879                       # Total number of references to valid blocks.
system.cpu.dcache.tags.sampled_refs              4316                       # Sample count of references to valid blocks.
system.cpu.dcache.tags.avg_refs            118.600324                       # Average number of references to valid blocks.
system.cpu.dcache.tags.warmup_cycle          48245750                       # Cycle when the warmup percentage was hit.
system.cpu.dcache.tags.occ_blocks::cpu.data   254.717818                       # Average occupied blocks per requestor
system.cpu.dcache.tags.occ_percent::cpu.data     0.994991                       # Average percentage of cache occupancy
system.cpu.dcache.tags.occ_percent::total     0.994991                       # Average percentage of cache occupancy
system.cpu.dcache.tags.occ_task_id_blocks::1024          256                       # Occupied blocks per task id
system.cpu.dcache.tags.age_task_id_blocks_1024::0            5                       # Occupied blocks per task id
system.cpu.dcache.tags.age_task_id_blocks_1024::1           41                       # Occupied blocks per task id
system.cpu.dcache.tags.age_task_id_blocks_1024::2          207                       # Occupied blocks per task id
system.cpu.dcache.tags.age_task_id_blocks_1024::3            3                       # Occupied blocks per task id
system.cpu.dcache.tags.occ_task_id_percent::1024            1                       # Percentage of cache occupancy per task id
system.cpu.dcache.tags.tag_accesses           2088280                       # Number of tag accesses
system.cpu.dcache.tags.data_accesses          2088280                       # Number of data accesses
system.cpu.dcache.ReadReq_hits::cpu.data       463826                       # number of ReadReq hits
system.cpu.dcache.ReadReq_hits::total          463826                       # number of ReadReq hits
system.cpu.dcache.WriteReq_hits::cpu.data        47483                       # number of WriteReq hits
system.cpu.dcache.WriteReq_hits::total          47483                       # number of WriteReq hits
system.cpu.dcache.LoadLockedReq_hits::cpu.data          280                       # number of LoadLockedReq hits
system.cpu.dcache.LoadLockedReq_hits::total          280                       # number of LoadLockedReq hits
system.cpu.dcache.StoreCondReq_hits::cpu.data          290                       # number of StoreCondReq hits
system.cpu.dcache.StoreCondReq_hits::total          290                       # number of StoreCondReq hits
system.cpu.dcache.demand_hits::cpu.data        511309                       # number of demand (read+write) hits
system.cpu.dcache.demand_hits::total           511309                       # number of demand (read+write) hits
system.cpu.dcache.overall_hits::cpu.data       511309                       # number of overall hits
system.cpu.dcache.overall_hits::total          511309                       # number of overall hits
system.cpu.dcache.ReadReq_misses::cpu.data         1345                       # number of ReadReq misses
system.cpu.dcache.ReadReq_misses::total          1345                       # number of ReadReq misses
system.cpu.dcache.WriteReq_misses::cpu.data         7750                       # number of WriteReq misses
system.cpu.dcache.WriteReq_misses::total         7750                       # number of WriteReq misses
system.cpu.dcache.LoadLockedReq_misses::cpu.data           17                       # number of LoadLockedReq misses
system.cpu.dcache.LoadLockedReq_misses::total           17                       # number of LoadLockedReq misses
system.cpu.dcache.demand_misses::cpu.data         9095                       # number of demand (read+write) misses
system.cpu.dcache.demand_misses::total           9095                       # number of demand (read+write) misses
system.cpu.dcache.overall_misses::cpu.data         9095                       # number of overall misses
system.cpu.dcache.overall_misses::total          9095                       # number of overall misses
system.cpu.dcache.ReadReq_miss_latency::cpu.data     76943500                       # number of ReadReq miss cycles
system.cpu.dcache.ReadReq_miss_latency::total     76943500                       # number of ReadReq miss cycles
system.cpu.dcache.WriteReq_miss_latency::cpu.data    553852359                       # number of WriteReq miss cycles
system.cpu.dcache.WriteReq_miss_latency::total    553852359                       # number of WriteReq miss cycles
system.cpu.dcache.LoadLockedReq_miss_latency::cpu.data       562500                       # number of LoadLockedReq miss cycles
system.cpu.dcache.LoadLockedReq_miss_latency::total       562500                       # number of LoadLockedReq miss cycles
system.cpu.dcache.demand_miss_latency::cpu.data    630795859                       # number of demand (read+write) miss cycles
system.cpu.dcache.demand_miss_latency::total    630795859                       # number of demand (read+write) miss cycles
system.cpu.dcache.overall_miss_latency::cpu.data    630795859                       # number of overall miss cycles
system.cpu.dcache.overall_miss_latency::total    630795859                       # number of overall miss cycles
system.cpu.dcache.ReadReq_accesses::cpu.data       465171                       # number of ReadReq accesses(hits+misses)
system.cpu.dcache.ReadReq_accesses::total       465171                       # number of ReadReq accesses(hits+misses)
system.cpu.dcache.WriteReq_accesses::cpu.data        55233                       # number of WriteReq accesses(hits+misses)
system.cpu.dcache.WriteReq_accesses::total        55233                       # number of WriteReq accesses(hits+misses)
system.cpu.dcache.LoadLockedReq_accesses::cpu.data          297                       # number of LoadLockedReq accesses(hits+misses)
system.cpu.dcache.LoadLockedReq_accesses::total          297                       # number of LoadLockedReq accesses(hits+misses)
system.cpu.dcache.StoreCondReq_accesses::cpu.data          290                       # number of StoreCondReq accesses(hits+misses)
system.cpu.dcache.StoreCondReq_accesses::total          290                       # number of StoreCondReq accesses(hits+misses)
system.cpu.dcache.demand_accesses::cpu.data       520404                       # number of demand (read+write) accesses
system.cpu.dcache.demand_accesses::total       520404                       # number of demand (read+write) accesses
system.cpu.dcache.overall_accesses::cpu.data       520404                       # number of overall (read+write) accesses
system.cpu.dcache.overall_accesses::total       520404                       # number of overall (read+write) accesses
system.cpu.dcache.ReadReq_miss_rate::cpu.data     0.002891                       # miss rate for ReadReq accesses
system.cpu.dcache.ReadReq_miss_rate::total     0.002891                       # miss rate for ReadReq accesses
system.cpu.dcache.WriteReq_miss_rate::cpu.data     0.140315                       # miss rate for WriteReq accesses
system.cpu.dcache.WriteReq_miss_rate::total     0.140315                       # miss rate for WriteReq accesses
system.cpu.dcache.LoadLockedReq_miss_rate::cpu.data     0.057239                       # miss rate for LoadLockedReq accesses
system.cpu.dcache.LoadLockedReq_miss_rate::total     0.057239                       # miss rate for LoadLockedReq accesses
system.cpu.dcache.demand_miss_rate::cpu.data     0.017477                       # miss rate for demand accesses
system.cpu.dcache.demand_miss_rate::total     0.017477                       # miss rate for demand accesses
system.cpu.dcache.overall_miss_rate::cpu.data     0.017477                       # miss rate for overall accesses
system.cpu.dcache.overall_miss_rate::total     0.017477                       # miss rate for overall accesses
system.cpu.dcache.ReadReq_avg_miss_latency::cpu.data 57207.063197                       # average ReadReq miss latency
system.cpu.dcache.ReadReq_avg_miss_latency::total 57207.063197                       # average ReadReq miss latency
system.cpu.dcache.WriteReq_avg_miss_latency::cpu.data 71464.820516                       # average WriteReq miss latency
system.cpu.dcache.WriteReq_avg_miss_latency::total 71464.820516                       # average WriteReq miss latency
system.cpu.dcache.LoadLockedReq_avg_miss_latency::cpu.data 33088.235294                       # average LoadLockedReq miss latency
system.cpu.dcache.LoadLockedReq_avg_miss_latency::total 33088.235294                       # average LoadLockedReq miss latency
system.cpu.dcache.demand_avg_miss_latency::cpu.data 69356.334140                       # average overall miss latency
[...]
system.l2.ReadReq_hits::cpu.data                  294                       # number of ReadReq hits
system.l2.ReadReq_hits::total                    9663                       # number of ReadReq hits
system.l2.Writeback_hits::writebacks             3645                       # number of Writeback hits
system.l2.Writeback_hits::total                  3645                       # number of Writeback hits
system.l2.ReadExReq_hits::cpu.data                 99                       # number of ReadExReq hits
system.l2.ReadExReq_hits::total                    99                       # number of ReadExReq hits
system.l2.demand_hits::cpu.inst                  9369                       # number of demand (read+write) hits
system.l2.demand_hits::cpu.data                   393                       # number of demand (read+write) hits
system.l2.demand_hits::total                     9762                       # number of demand (read+write) hits
system.l2.overall_hits::cpu.inst                 9369                       # number of overall hits
system.l2.overall_hits::cpu.data                  393                       # number of overall hits
system.l2.overall_hits::total                    9762                       # number of overall hits
system.l2.ReadReq_misses::cpu.inst               1529                       # number of ReadReq misses
system.l2.ReadReq_misses::cpu.data                671                       # number of ReadReq misses
system.l2.ReadReq_misses::total                  2200                       # number of ReadReq misses
system.l2.ReadExReq_misses::cpu.data             3252                       # number of ReadExReq misses
system.l2.ReadExReq_misses::total                3252                       # number of ReadExReq misses
system.l2.demand_misses::cpu.inst                1529                       # number of demand (read+write) misses
system.l2.demand_misses::cpu.data                3923                       # number of demand (read+write) misses
system.l2.demand_misses::total                   5452                       # number of demand (read+write) misses
system.l2.overall_misses::cpu.inst               1529                       # number of overall misses
system.l2.overall_misses::cpu.data               3923                       # number of overall misses
system.l2.overall_misses::total                  5452                       # number of overall misses
system.l2.ReadReq_miss_latency::cpu.inst    114129250                       # number of ReadReq miss cycles
system.l2.ReadReq_miss_latency::cpu.data     53192000                       # number of ReadReq miss cycles
system.l2.ReadReq_miss_latency::total       167321250                       # number of ReadReq miss cycles
system.l2.ReadExReq_miss_latency::cpu.data    242449750                       # number of ReadExReq miss cycles
system.l2.ReadExReq_miss_latency::total     242449750                       # number of ReadExReq miss cycles
system.l2.demand_miss_latency::cpu.inst     114129250                       # number of demand (read+write) miss cycles
system.l2.demand_miss_latency::cpu.data     295641750                       # number of demand (read+write) miss cycles
system.l2.demand_miss_latency::total        409771000                       # number of demand (read+write) miss cycles
system.l2.overall_miss_latency::cpu.inst    114129250                       # number of overall miss cycles
system.l2.overall_miss_latency::cpu.data    295641750                       # number of overall miss cycles
system.l2.overall_miss_latency::total       409771000                       # number of overall miss cycles
system.l2.ReadReq_accesses::cpu.inst            10898                       # number of ReadReq accesses(hits+misses)
system.l2.ReadReq_accesses::cpu.data              965                       # number of ReadReq accesses(hits+misses)
system.l2.ReadReq_accesses::total               11863                       # number of ReadReq accesses(hits+misses)
system.l2.Writeback_accesses::writebacks         3645                       # number of Writeback accesses(hits+misses)
system.l2.Writeback_accesses::total              3645                       # number of Writeback accesses(hits+misses)
system.l2.ReadExReq_accesses::cpu.data           3351                       # number of ReadExReq accesses(hits+misses)
system.l2.ReadExReq_accesses::total              3351                       # number of ReadExReq accesses(hits+misses)
system.l2.demand_accesses::cpu.inst             10898                       # number of demand (read+write) accesses
system.l2.demand_accesses::cpu.data              4316                       # number of demand (read+write) accesses
system.l2.demand_accesses::total                15214                       # number of demand (read+write) accesses
system.l2.overall_accesses::cpu.inst            10898                       # number of overall (read+write) accesses
system.l2.overall_accesses::cpu.data             4316                       # number of overall (read+write) accesses
system.l2.overall_accesses::total               15214                       # number of overall (read+write) accesses
system.l2.ReadReq_miss_rate::cpu.inst        0.140301                       # miss rate for ReadReq accesses
system.l2.ReadReq_miss_rate::cpu.data        0.695337                       # miss rate for ReadReq accesses
system.l2.ReadReq_miss_rate::total           0.185451                       # miss rate for ReadReq accesses
system.l2.ReadExReq_miss_rate::cpu.data      0.970457                       # miss rate for ReadExReq accesses
system.l2.ReadExReq_miss_rate::total         0.970457                       # miss rate for ReadExReq accesses
system.l2.demand_miss_rate::cpu.inst         0.140301                       # miss rate for demand accesses
system.l2.demand_miss_rate::cpu.data         0.908943                       # miss rate for demand accesses
system.l2.demand_miss_rate::total            0.358354                       # miss rate for demand accesses
system.l2.overall_miss_rate::cpu.inst        0.140301                       # miss rate for overall accesses
system.l2.overall_miss_rate::cpu.data        0.908943                       # miss rate for overall accesses
system.l2.overall_miss_rate::total           0.358354                       # miss rate for overall accesses
system.l2.ReadReq_avg_miss_latency::cpu.inst 74643.067364                       # average ReadReq miss latency
system.l2.ReadReq_avg_miss_latency::cpu.data 79272.727273                       # average ReadReq miss latency
system.l2.ReadReq_avg_miss_latency::total 76055.113636                       # average ReadReq miss latency
system.l2.ReadExReq_avg_miss_latency::cpu.data 74554.043665                       # average ReadExReq miss latency
system.l2.ReadExReq_avg_miss_latency::total 74554.043665                       # average ReadExReq miss latency
system.l2.demand_avg_miss_latency::cpu.inst 74643.067364                       # average overall miss latency
system.l2.demand_avg_miss_latency::cpu.data 75361.139434                       # average overall miss latency
system.l2.demand_avg_miss_latency::total 75159.757887                       # average overall miss latency
system.l2.overall_avg_miss_latency::cpu.inst 74643.067364                       # average overall miss latency
system.l2.overall_avg_miss_latency::cpu.data 75361.139434                       # average overall miss latency
system.l2.overall_avg_miss_latency::total 75159.757887                       # average overall miss latency
system.l2.blocked_cycles::no_mshrs                  0                       # number of cycles access was blocked
system.l2.blocked_cycles::no_targets                0                       # number of cycles access was blocked
system.l2.blocked::no_mshrs                         0                       # number of cycles access was blocked
system.l2.blocked::no_targets                       0                       # number of cycles access was blocked
system.l2.avg_blocked_cycles::no_mshrs            nan                       # average number of cycles each access was blocked
system.l2.avg_blocked_cycles::no_targets          nan                       # average number of cycles each access was blocked
system.l2.fast_writes                               0                       # number of fast writes performed
system.l2.cache_copies                              0                       # number of cache copies performed
system.l2.writebacks::writebacks                 1812                       # number of writebacks
system.l2.writebacks::total                      1812                       # number of writebacks
system.l2.ReadReq_mshr_misses::cpu.inst          1529                       # number of ReadReq MSHR misses
system.l2.ReadReq_mshr_misses::cpu.data           671                       # number of ReadReq MSHR misses
system.l2.ReadReq_mshr_misses::total             2200                       # number of ReadReq MSHR misses
system.l2.ReadExReq_mshr_misses::cpu.data         3252                       # number of ReadExReq MSHR misses
system.l2.ReadExReq_mshr_misses::total           3252                       # number of ReadExReq MSHR misses
system.l2.demand_mshr_misses::cpu.inst           1529                       # number of demand (read+write) MSHR misses
system.l2.demand_mshr_misses::cpu.data           3923                       # number of demand (read+write) MSHR misses
system.l2.demand_mshr_misses::total              5452                       # number of demand (read+write) MSHR misses
system.l2.overall_mshr_misses::cpu.inst          1529                       # number of overall MSHR misses
system.l2.overall_mshr_misses::cpu.data          3923                       # number of overall MSHR misses
system.l2.overall_mshr_misses::total             5452                       # number of overall MSHR misses
system.l2.ReadReq_mshr_miss_latency::cpu.inst     96633750                       # number of ReadReq MSHR miss cycles
system.l2.ReadReq_mshr_miss_latency::cpu.data     45542000                       # number of ReadReq MSHR miss cycles
system.l2.ReadReq_mshr_miss_latency::total    142175750                       # number of ReadReq MSHR miss cycles
system.l2.ReadExReq_mshr_miss_latency::cpu.data    205403250                       # number of ReadExReq MSHR miss cycles
system.l2.ReadExReq_mshr_miss_latency::total    205403250                       # number of ReadExReq MSHR miss cycles
system.l2.demand_mshr_miss_latency::cpu.inst     96633750                       # number of demand (read+write) MSHR miss cycles
system.l2.demand_mshr_miss_latency::cpu.data    250945250                       # number of demand (read+write) MSHR miss cycles
system.l2.demand_mshr_miss_latency::total    347579000                       # number of demand (read+write) MSHR miss cycles
system.l2.overall_mshr_miss_latency::cpu.inst     96633750                       # number of overall MSHR miss cycles
system.l2.overall_mshr_miss_latency::cpu.data    250945250                       # number of overall MSHR miss cycles
system.l2.overall_mshr_miss_latency::total    347579000                       # number of overall MSHR miss cycles
system.l2.ReadReq_mshr_miss_rate::cpu.inst     0.140301                       # mshr miss rate for ReadReq accesses
system.l2.ReadReq_mshr_miss_rate::cpu.data     0.695337                       # mshr miss rate for ReadReq accesses
system.l2.ReadReq_mshr_miss_rate::total      0.185451                       # mshr miss rate for ReadReq accesses
system.l2.ReadExReq_mshr_miss_rate::cpu.data     0.970457                       # mshr miss rate for ReadExReq accesses
system.l2.ReadExReq_mshr_miss_rate::total     0.970457                       # mshr miss rate for ReadExReq accesses
system.l2.demand_mshr_miss_rate::cpu.inst     0.140301                       # mshr miss rate for demand accesses
system.l2.demand_mshr_miss_rate::cpu.data     0.908943                       # mshr miss rate for demand accesses
system.l2.demand_mshr_miss_rate::total       0.358354                       # mshr miss rate for demand accesses
system.l2.overall_mshr_miss_rate::cpu.inst     0.140301                       # mshr miss rate for overall accesses
system.l2.overall_mshr_miss_rate::cpu.data     0.908943                       # mshr miss rate for overall accesses
system.l2.overall_mshr_miss_rate::total      0.358354                       # mshr miss rate for overall accesses
system.l2.ReadReq_avg_mshr_miss_latency::cpu.inst 63200.621321                       # average ReadReq mshr miss latency
system.l2.ReadReq_avg_mshr_miss_latency::cpu.data 67871.833085                       # average ReadReq mshr miss latency
system.l2.ReadReq_avg_mshr_miss_latency::total 64625.340909                       # average ReadReq mshr miss latency
system.l2.ReadExReq_avg_mshr_miss_latency::cpu.data 63162.130996                       # average ReadExReq mshr miss latency
system.l2.ReadExReq_avg_mshr_miss_latency::total 63162.130996                       # average ReadExReq mshr miss latency
system.l2.demand_avg_mshr_miss_latency::cpu.inst 63200.621321                       # average overall mshr miss latency
system.l2.demand_avg_mshr_miss_latency::cpu.data 63967.690543                       # average overall mshr miss latency
system.l2.demand_avg_mshr_miss_latency::total 63752.567865                       # average overall mshr miss latency
system.l2.overall_avg_mshr_miss_latency::cpu.inst 63200.621321                       # average overall mshr miss latency
system.l2.overall_avg_mshr_miss_latency::cpu.data 63967.690543                       # average overall mshr miss latency
system.l2.overall_avg_mshr_miss_latency::total 63752.567865                       # average overall mshr miss latency
system.l2.no_allocate_misses                        0                       # Number of misses that were no-allocate
system.membus.trans_dist::ReadReq                2200                       # Transaction distribution
system.membus.trans_dist::ReadResp               2200                       # Transaction distribution
system.membus.trans_dist::Writeback              1812                       # Transaction distribution
system.membus.trans_dist::ReadExReq              3252                       # Transaction distribution
system.membus.trans_dist::ReadExResp             3252                       # Transaction distribution
system.membus.pkt_count_system.l2.mem_side::system.mem_ctrls.port        12716                       # Packet count per connected master and slave (bytes)
system.membus.pkt_count::total                  12716                       # Packet count per connected master and slave (bytes)
system.membus.pkt_size_system.l2.mem_side::system.mem_ctrls.port       464896                       # Cumulative packet size per connected master and slave (bytes)
system.membus.pkt_size::total                  464896                       # Cumulative packet size per connected master and slave (bytes)
system.membus.snoops                                0                       # Total snoops (count)
system.membus.snoop_fanout::samples              7264                       # Request fanout histogram
system.membus.snoop_fanout::mean                    0                       # Request fanout histogram
system.membus.snoop_fanout::stdev                   0                       # Request fanout histogram
system.membus.snoop_fanout::underflows              0      0.00%      0.00% # Request fanout histogram
system.membus.snoop_fanout::0                    7264    100.00%    100.00% # Request fanout histogram
system.membus.snoop_fanout::1                       0      0.00%    100.00% # Request fanout histogram
system.membus.snoop_fanout::overflows               0      0.00%    100.00% # Request fanout histogram
system.membus.snoop_fanout::min_value               0                       # Request fanout histogram
system.membus.snoop_fanout::max_value               0                       # Request fanout histogram
system.membus.snoop_fanout::total                7264                       # Request fanout histogram
system.membus.reqLayer0.occupancy             7256000                       # Layer occupancy (ticks)
system.membus.reqLayer0.utilization               0.2                       # Layer utilization (%)
system.membus.respLayer1.occupancy           14740000                       # Layer occupancy (ticks)
system.membus.respLayer1.utilization              0.4                       # Layer utilization (%)
system.tol2bus.trans_dist::ReadReq              11863                       # Transaction distribution
system.tol2bus.trans_dist::ReadResp             11863                       # Transaction distribution
system.tol2bus.trans_dist::Writeback             3645                       # Transaction distribution
system.tol2bus.trans_dist::ReadExReq             3351                       # Transaction distribution
system.tol2bus.trans_dist::ReadExResp            3351                       # Transaction distribution
system.tol2bus.pkt_count_system.cpu.icache.mem_side::system.l2.cpu_side        21796                       # Packet count per connected master and slave (bytes)
system.tol2bus.pkt_count_system.cpu.dcache.mem_side::system.l2.cpu_side        12277                       # Packet count per connected master and slave (bytes)
system.tol2bus.pkt_count::total                 34073                       # Packet count per connected master and slave (bytes)
system.tol2bus.pkt_size_system.cpu.icache.mem_side::system.l2.cpu_side       697472                       # Cumulative packet size per connected master and slave (bytes)
system.tol2bus.pkt_size_system.cpu.dcache.mem_side::system.l2.cpu_side       509504                       # Cumulative packet size per connected master and slave (bytes)
system.tol2bus.pkt_size::total                1206976                       # Cumulative packet size per connected master and slave (bytes)
system.tol2bus.snoops                               0                       # Total snoops (count)
system.tol2bus.snoop_fanout::samples            18859                       # Request fanout histogram
system.tol2bus.snoop_fanout::mean                   1                       # Request fanout histogram
system.tol2bus.snoop_fanout::stdev                  0                       # Request fanout histogram
system.tol2bus.snoop_fanout::underflows             0      0.00%      0.00% # Request fanout histogram
system.tol2bus.snoop_fanout::0                      0      0.00%      0.00% # Request fanout histogram
system.tol2bus.snoop_fanout::1                  18859    100.00%    100.00% # Request fanout histogram
system.tol2bus.snoop_fanout::2                      0      0.00%    100.00% # Request fanout histogram
system.tol2bus.snoop_fanout::overflows              0      0.00%    100.00% # Request fanout histogram
system.tol2bus.snoop_fanout::min_value              1                       # Request fanout histogram
system.tol2bus.snoop_fanout::max_value              1                       # Request fanout histogram
system.tol2bus.snoop_fanout::total              18859                       # Request fanout histogram
system.tol2bus.reqLayer0.occupancy           13074500                       # Layer occupancy (ticks)
system.tol2bus.reqLayer0.utilization              0.4                       # Layer utilization (%)
system.tol2bus.respLayer0.occupancy          16685247                       # Layer occupancy (ticks)
system.tol2bus.respLayer0.utilization             0.4                       # Layer utilization (%)
system.tol2bus.respLayer1.occupancy           7245250                       # Layer occupancy (ticks)
system.tol2bus.respLayer1.utilization             0.2                       # Layer utilization (%)

---------- End Simulation Statistics   ----------
