
---------- Begin Simulation Statistics ----------
sim_seconds                                  0.003723                       # Number of seconds simulated
sim_ticks                                  3722668000                       # Number of ticks simulated
final_tick                                 3722668000                       # Number of ticks from beginning of simulation (restored from checkpoints and never reset)
sim_freq                                 1000000000000                       # Frequency of simulated ticks
host_inst_rate                                 294176                       # Simulator instruction rate (inst/s)
host_op_rate                                   294176                       # Simulator op (including micro ops) rate (op/s)
host_tick_rate                              219023933                       # Simulator tick rate (ticks/s)
host_mem_usage                                 637020                       # Number of bytes of host memory used
host_seconds                                    17.00                       # Real time elapsed on the host
sim_insts                                     5000002                       # Number of instructions simulated
sim_ops                                       5000002                       # Number of ops (including micro ops) simulated
system.voltage_domain.voltage                       1                       # Voltage in Volts
system.clk_domain.clock                           500                       # Clock period in ticks
system.mem_ctrls.bytes_read::cpu.inst           97408                       # Number of bytes read from this memory
system.mem_ctrls.bytes_read::cpu.data          250240                       # Number of bytes read from this memory
system.mem_ctrls.bytes_read::total             347648                       # Number of bytes read from this memory
system.mem_ctrls.bytes_inst_read::cpu.inst        97408                       # Number of instructions bytes read from this memory
system.mem_ctrls.bytes_inst_read::total         97408                       # Number of instructions bytes read from this memory
system.mem_ctrls.bytes_written::writebacks        97408                       # Number of bytes written to this memory
system.mem_ctrls.bytes_written::total           97408                       # Number of bytes written to this memory
system.mem_ctrls.num_reads::cpu.inst             1522                       # Number of read requests responded to by this memory
system.mem_ctrls.num_reads::cpu.data             3910                       # Number of read requests responded to by this memory
system.mem_ctrls.num_reads::total                5432                       # Number of read requests responded to by this memory
system.mem_ctrls.num_writes::writebacks          1522                       # Number of write requests responded to by this memory
system.mem_ctrls.num_writes::total               1522                       # Number of write requests responded to by this memory
system.mem_ctrls.bw_read::cpu.inst           26166180                       # Total read bandwidth from this memory (bytes/s)
system.mem_ctrls.bw_read::cpu.data           67220606                       # Total read bandwidth from this memory (bytes/s)
system.mem_ctrls.bw_read::total              93386786                       # Total read bandwidth from this memory (bytes/s)
system.mem_ctrls.bw_inst_read::cpu.inst      26166180                       # Instruction read bandwidth from this memory (bytes/s)
system.mem_ctrls.bw_inst_read::total         26166180                       # Instruction read bandwidth from this memory (bytes/s)
system.mem_ctrls.bw_write::writebacks        26166180                       # Write bandwidth from this memory (bytes/s)
system.mem_ctrls.bw_write::total             26166180                       # Write bandwidth from this memory (bytes/s)
system.mem_ctrls.bw_total::writebacks        26166180                       # Total bandwidth to/from this memory (bytes/s)
system.mem_ctrls.bw_total::cpu.inst          26166180                       # Total bandwidth to/from this memory (bytes/s)
system.mem_ctrls.bw_total::cpu.data          67220606                       # Total bandwidth to/from this memory (bytes/s)
system.mem_ctrls.bw_total::total            119552966                       # Total bandwidth to/from this memory (bytes/s)
system.mem_ctrls.readReqs                        5432                       # Number of read requests accepted
system.mem_ctrls.writeReqs                       1522                       # Number of write requests accepted
system.mem_ctrls.readBursts                      5432                       # Number of DRAM read bursts, including those serviced by the write queue
system.mem_ctrls.writeBursts                     1522                       # Number of DRAM write bursts, including those merged in the write queue
system.mem_ctrls.bytesReadDRAM                 347584                       # Total number of bytes read from DRAM
system.mem_ctrls.bytesReadWrQ                      64                       # Total number of bytes read from write queue
system.mem_ctrls.bytesWritten                   95552                       # Total number of bytes written to DRAM
system.mem_ctrls.bytesReadSys                  347648                       # Total read bytes from the system interface side
system.mem_ctrls.bytesWrittenSys                97408                       # Total written bytes from the system interface side
system.mem_ctrls.servicedByWrQ                      1                       # Number of DRAM read bursts serviced by the write queue
system.mem_ctrls.mergedWrBursts                     0                       # Number of DRAM write bursts merged with an existing one
system.mem_ctrls.neitherReadNorWriteReqs            0                       # Number of requests that are neither read nor write
system.mem_ctrls.perBankRdBursts::0               373                       # Per bank write bursts
system.mem_ctrls.perBankRdBursts::1               352                       # Per bank write bursts
system.mem_ctrls.perBankRdBursts::2               245                       # Per bank write bursts
system.mem_ctrls.perBankRdBursts::3               264                       # Per bank write bursts
system.mem_ctrls.perBankRdBursts::4               366                       # Per bank write bursts
system.mem_ctrls.perBankRdBursts::5               286                       # Per bank write bursts
system.mem_ctrls.perBankRdBursts::6               273                       # Per bank write bursts
system.mem_ctrls.perBankRdBursts::7               240                       # Per bank write bursts
system.mem_ctrls.perBankRdBursts::8               350                       # Per bank write bursts
system.mem_ctrls.perBankRdBursts::9               384                       # Per bank write bursts
system.mem_ctrls.perBankRdBursts::10              287                       # Per bank write bursts
system.mem_ctrls.perBankRdBursts::11              406                       # Per bank write bursts
system.mem_ctrls.perBankRdBursts::12              255                       # Per bank write bursts
system.mem_ctrls.perBankRdBursts::13              418                       # Per bank write bursts
system.mem_ctrls.perBankRdBursts::14              535                       # Per bank write bursts
system.mem_ctrls.perBankRdBursts::15              397                       # Per bank write bursts
system.mem_ctrls.perBankWrBursts::0                98                       # Per bank write bursts
system.mem_ctrls.perBankWrBursts::1                40                       # Per bank write bursts
system.mem_ctrls.perBankWrBursts::2               123                       # Per bank write bursts
system.mem_ctrls.perBankWrBursts::3               131                       # Per bank write bursts
system.mem_ctrls.perBankWrBursts::4               106                       # Per bank write bursts
system.mem_ctrls.perBankWrBursts::5                68                       # Per bank write bursts
system.mem_ctrls.perBankWrBursts::6                74                       # Per bank write bursts
system.mem_ctrls.perBankWrBursts::7                64                       # Per bank write bursts
system.mem_ctrls.perBankWrBursts::8               112                       # Per bank write bursts
system.mem_ctrls.perBankWrBursts::9               161                       # Per bank write bursts
system.mem_ctrls.perBankWrBursts::10               63                       # Per bank write bursts
system.mem_ctrls.perBankWrBursts::11              130                       # Per bank write bursts
system.mem_ctrls.perBankWrBursts::12               70                       # Per bank write bursts
system.mem_ctrls.perBankWrBursts::13               89                       # Per bank write bursts
system.mem_ctrls.perBankWrBursts::14               93                       # Per bank write bursts
system.mem_ctrls.perBankWrBursts::15               71                       # Per bank write bursts
system.mem_ctrls.numRdRetry                         0                       # Number of times read queue was full causing retry
system.mem_ctrls.numWrRetry                         0                       # Number of times write queue was full causing retry
system.mem_ctrls.totGap                    3721511500                       # Total gap between requests
system.mem_ctrls.readPktSize::0                     0                       # Read request sizes (log2)
system.mem_ctrls.readPktSize::1                     0                       # Read request sizes (log2)
system.mem_ctrls.readPktSize::2                     0                       # Read request sizes (log2)
system.mem_ctrls.readPktSize::3                     0                       # Read request sizes (log2)
system.mem_ctrls.readPktSize::4                     0                       # Read request sizes (log2)
system.mem_ctrls.readPktSize::5                     0                       # Read request sizes (log2)
system.mem_ctrls.readPktSize::6                  5432                       # Read request sizes (log2)
system.mem_ctrls.writePktSize::0                    0                       # Write request sizes (log2)
system.mem_ctrls.writePktSize::1                    0                       # Write request sizes (log2)
system.mem_ctrls.writePktSize::2                    0                       # Write request sizes (log2)
system.mem_ctrls.writePktSize::3                    0                       # Write request sizes (log2)
system.mem_ctrls.writePktSize::4                    0                       # Write request sizes (log2)
system.mem_ctrls.writePktSize::5                    0                       # Write request sizes (log2)
system.mem_ctrls.writePktSize::6                 1522                       # Write request sizes (log2)
system.mem_ctrls.rdQLenPdf::0                    3695                       # What read queue length does an incoming req see
system.mem_ctrls.rdQLenPdf::1                    1098                       # What read queue length does an incoming req see
system.mem_ctrls.rdQLenPdf::2                     435                       # What read queue length does an incoming req see
system.mem_ctrls.rdQLenPdf::3                     190                       # What read queue length does an incoming req see
system.mem_ctrls.rdQLenPdf::4                      13                       # What read queue length does an incoming req see
system.mem_ctrls.rdQLenPdf::5                       0                       # What read queue length does an incoming req see
system.mem_ctrls.rdQLenPdf::6                       0                       # What read queue length does an incoming req see
system.mem_ctrls.rdQLenPdf::7                       0                       # What read queue length does an incoming req see
system.mem_ctrls.rdQLenPdf::8                       0                       # What read queue length does an incoming req see
system.mem_ctrls.rdQLenPdf::9                       0                       # What read queue length does an incoming req see
system.mem_ctrls.rdQLenPdf::10                      0                       # What read queue length does an incoming req see
system.mem_ctrls.rdQLenPdf::11                      0                       # What read queue length does an incoming req see
system.mem_ctrls.rdQLenPdf::12                      0                       # What read queue length does an incoming req see
system.mem_ctrls.rdQLenPdf::13                      0                       # What read queue length does an incoming req see
system.mem_ctrls.rdQLenPdf::14                      0                       # What read queue length does an incoming req see
system.mem_ctrls.rdQLenPdf::15                      0                       # What read queue length does an incoming req see
system.mem_ctrls.rdQLenPdf::16                      0                       # What read queue length does an incoming req see
system.mem_ctrls.rdQLenPdf::17                      0                       # What read queue length does an incoming req see
system.mem_ctrls.rdQLenPdf::18                      0                       # What read queue length does an incoming req see
system.mem_ctrls.rdQLenPdf::19                      0                       # What read queue length does an incoming req see
system.mem_ctrls.rdQLenPdf::20                      0                       # What read queue length does an incoming req see
system.mem_ctrls.rdQLenPdf::21                      0                       # What read queue length does an incoming req see
system.mem_ctrls.rdQLenPdf::22                      0                       # What read queue length does an incoming req see
system.mem_ctrls.rdQLenPdf::23                      0                       # What read queue length does an incoming req see
system.mem_ctrls.rdQLenPdf::24                      0                       # What read queue length does an incoming req see
system.mem_ctrls.rdQLenPdf::25                      0                       # What read queue length does an incoming req see
system.mem_ctrls.rdQLenPdf::26                      0                       # What read queue length does an incoming req see
system.mem_ctrls.rdQLenPdf::27                      0                       # What read queue length does an incoming req see
system.mem_ctrls.rdQLenPdf::28                      0                       # What read queue length does an incoming req see
system.mem_ctrls.rdQLenPdf::29                      0                       # What read queue length does an incoming req see
system.mem_ctrls.rdQLenPdf::30                      0                       # What read queue length does an incoming req see
system.mem_ctrls.rdQLenPdf::31                      0                       # What read queue length does an incoming req see
system.mem_ctrls.wrQLenPdf::0                       1                       # What write queue length does an incoming req see
system.mem_ctrls.wrQLenPdf::1                       1                       # What write queue length does an incoming req see
system.mem_ctrls.wrQLenPdf::2                       1                       # What write queue length does an incoming req see
system.mem_ctrls.wrQLenPdf::3                       1                       # What write queue length does an incoming req see
system.mem_ctrls.wrQLenPdf::4                       1                       # What write queue length does an incoming req see
system.mem_ctrls.wrQLenPdf::5                       1                       # What write queue length does an incoming req see
system.mem_ctrls.wrQLenPdf::6                       1                       # What write queue length does an incoming req see
system.mem_ctrls.wrQLenPdf::7                       1                       # What write queue length does an incoming req see
system.mem_ctrls.wrQLenPdf::8                       1                       # What write queue length does an incoming req see
system.mem_ctrls.wrQLenPdf::9                       1                       # What write queue length does an incoming req see
system.mem_ctrls.wrQLenPdf::10                      1                       # What write queue length does an incoming req see
system.mem_ctrls.wrQLenPdf::11                      1                       # What write queue length does an incoming req see
system.mem_ctrls.wrQLenPdf::12                      1                       # What write queue length does an incoming req see
system.mem_ctrls.wrQLenPdf::13                      1                       # What write queue length does an incoming req see
system.mem_ctrls.wrQLenPdf::14                      1                       # What write queue length does an incoming req see
system.mem_ctrls.wrQLenPdf::15                     38                       # What write queue length does an incoming req see
system.mem_ctrls.wrQLenPdf::16                     39                       # What write queue length does an incoming req see
system.mem_ctrls.wrQLenPdf::17                     73                       # What write queue length does an incoming req see
system.mem_ctrls.wrQLenPdf::18                     81                       # What write queue length does an incoming req see
system.mem_ctrls.wrQLenPdf::19                     88                       # What write queue length does an incoming req see
system.mem_ctrls.wrQLenPdf::20                     90                       # What write queue length does an incoming req see
system.mem_ctrls.wrQLenPdf::21                     90                       # What write queue length does an incoming req see
system.mem_ctrls.wrQLenPdf::22                     89                       # What write queue length does an incoming req see
system.mem_ctrls.wrQLenPdf::23                     90                       # What write queue length does an incoming req see
system.mem_ctrls.wrQLenPdf::24                     92                       # What write queue length does an incoming req see
system.mem_ctrls.wrQLenPdf::25                     95                       # What write queue length does an incoming req see
system.mem_ctrls.wrQLenPdf::26                     96                       # What write queue length does an incoming req see
system.mem_ctrls.wrQLenPdf::27                     93                       # What write queue length does an incoming req see
system.mem_ctrls.wrQLenPdf::28                     89                       # What write queue length does an incoming req see
system.mem_ctrls.wrQLenPdf::29                     98                       # What write queue length does an incoming req see
system.mem_ctrls.wrQLenPdf::30                     88                       # What write queue length does an incoming req see
system.mem_ctrls.wrQLenPdf::31                     89                       # What write queue length does an incoming req see
system.mem_ctrls.wrQLenPdf::32                     88                       # What write queue length does an incoming req see
system.mem_ctrls.wrQLenPdf::33                      1                       # What write queue length does an incoming req see
system.mem_ctrls.wrQLenPdf::34                      0                       # What write queue length does an incoming req see
system.mem_ctrls.wrQLenPdf::35                      0                       # What write queue length does an incoming req see
system.mem_ctrls.wrQLenPdf::36                      0                       # What write queue length does an incoming req see
system.mem_ctrls.wrQLenPdf::37                      0                       # What write queue length does an incoming req see
system.mem_ctrls.wrQLenPdf::38                      0                       # What write queue length does an incoming req see
system.mem_ctrls.wrQLenPdf::39                      0                       # What write queue length does an incoming req see
system.mem_ctrls.wrQLenPdf::40                      0                       # What write queue length does an incoming req see
system.mem_ctrls.wrQLenPdf::41                      0                       # What write queue length does an incoming req see
system.mem_ctrls.wrQLenPdf::42                      0                       # What write queue length does an incoming req see
system.mem_ctrls.wrQLenPdf::43                      0                       # What write queue length does an incoming req see
system.mem_ctrls.wrQLenPdf::44                      0                       # What write queue length does an incoming req see
system.mem_ctrls.wrQLenPdf::45                      0                       # What write queue length does an incoming req see
system.mem_ctrls.wrQLenPdf::46                      0                       # What write queue length does an incoming req see
system.mem_ctrls.wrQLenPdf::47                      0                       # What write queue length does an incoming req see
system.mem_ctrls.wrQLenPdf::48                      0                       # What write queue length does an incoming req see
system.mem_ctrls.wrQLenPdf::49                      0                       # What write queue length does an incoming req see
system.mem_ctrls.wrQLenPdf::50                      0                       # What write queue length does an incoming req see
system.mem_ctrls.wrQLenPdf::51                      0                       # What write queue length does an incoming req see
system.mem_ctrls.wrQLenPdf::52                      0                       # What write queue length does an incoming req see
system.mem_ctrls.wrQLenPdf::53                      0                       # What write queue length does an incoming req see
system.mem_ctrls.wrQLenPdf::54                      0                       # What write queue length does an incoming req see
system.mem_ctrls.wrQLenPdf::55                      0                       # What write queue length does an incoming req see
system.mem_ctrls.wrQLenPdf::56                      0                       # What write queue length does an incoming req see
system.mem_ctrls.wrQLenPdf::57                      0                       # What write queue length does an incoming req see
system.mem_ctrls.wrQLenPdf::58                      0                       # What write queue length does an incoming req see
system.mem_ctrls.wrQLenPdf::59                      0                       # What write queue length does an incoming req see
system.mem_ctrls.wrQLenPdf::60                      0                       # What write queue length does an incoming req see
system.mem_ctrls.wrQLenPdf::61                      0                       # What write queue length does an incoming req see
system.mem_ctrls.wrQLenPdf::62                      0                       # What write queue length does an incoming req see
system.mem_ctrls.wrQLenPdf::63                      0                       # What write queue length does an incoming req see
system.mem_ctrls.bytesPerActivate::samples         1651                       # Bytes accessed per row activation
system.mem_ctrls.bytesPerActivate::mean    268.404603                       # Bytes accessed per row activation
system.mem_ctrls.bytesPerActivate::gmean   190.331634                       # Bytes accessed per row activation
system.mem_ctrls.bytesPerActivate::stdev   252.956340                       # Bytes accessed per row activation
system.mem_ctrls.bytesPerActivate::0-127          404     24.47%     24.47% # Bytes accessed per row activation
system.mem_ctrls.bytesPerActivate::128-255          537     32.53%     57.00% # Bytes accessed per row activation
system.mem_ctrls.bytesPerActivate::256-383          406     24.59%     81.59% # Bytes accessed per row activation
system.mem_ctrls.bytesPerActivate::384-511           80      4.85%     86.43% # Bytes accessed per row activation
system.mem_ctrls.bytesPerActivate::512-639           61      3.69%     90.13% # Bytes accessed per row activation
system.mem_ctrls.bytesPerActivate::640-767           25      1.51%     91.64% # Bytes accessed per row activation
system.mem_ctrls.bytesPerActivate::768-895           15      0.91%     92.55% # Bytes accessed per row activation
system.mem_ctrls.bytesPerActivate::896-1023           21      1.27%     93.82% # Bytes accessed per row activation
system.mem_ctrls.bytesPerActivate::1024-1151          102      6.18%    100.00% # Bytes accessed per row activation
system.mem_ctrls.bytesPerActivate::total         1651                       # Bytes accessed per row activation
system.mem_ctrls.rdPerTurnAround::samples           88                       # Reads before turning the bus around for writes
system.mem_ctrls.rdPerTurnAround::mean      60.829545                       # Reads before turning the bus around for writes
system.mem_ctrls.rdPerTurnAround::gmean     36.086762                       # Reads before turning the bus around for writes
system.mem_ctrls.rdPerTurnAround::stdev    203.423019                       # Reads before turning the bus around for writes
system.mem_ctrls.rdPerTurnAround::0-63             80     90.91%     90.91% # Reads before turning the bus around for writes
system.mem_ctrls.rdPerTurnAround::64-127            4      4.55%     95.45% # Reads before turning the bus around for writes
system.mem_ctrls.rdPerTurnAround::128-191            3      3.41%     98.86% # Reads before turning the bus around for writes
system.mem_ctrls.rdPerTurnAround::1920-1983            1      1.14%    100.00% # Reads before turning the bus around for writes
system.mem_ctrls.rdPerTurnAround::total            88                       # Reads before turning the bus around for writes
system.mem_ctrls.wrPerTurnAround::samples           88                       # Writes before turning the bus around for reads
system.mem_ctrls.wrPerTurnAround::mean      16.965909                       # Writes before turning the bus around for reads
system.mem_ctrls.wrPerTurnAround::gmean     16.930161                       # Writes before turning the bus around for reads
system.mem_ctrls.wrPerTurnAround::stdev      1.118793                       # Writes before turning the bus around for reads
system.mem_ctrls.wrPerTurnAround::16               48     54.55%     54.55% # Writes before turning the bus around for reads
system.mem_ctrls.wrPerTurnAround::17                2      2.27%     56.82% # Writes before turning the bus around for reads
system.mem_ctrls.wrPerTurnAround::18               32     36.36%     93.18% # Writes before turning the bus around for reads
system.mem_ctrls.wrPerTurnAround::19                5      5.68%     98.86% # Writes before turning the bus around for reads
system.mem_ctrls.wrPerTurnAround::20                1      1.14%    100.00% # Writes before turning the bus around for reads
system.mem_ctrls.wrPerTurnAround::total            88                       # Writes before turning the bus around for reads
system.mem_ctrls.totQLat                     59425000                       # Total ticks spent queuing
system.mem_ctrls.totMemAccLat               161256250                       # Total ticks spent from burst creation until serviced by the DRAM
system.mem_ctrls.totBusLat                   27155000                       # Total ticks spent in databus transfers
system.mem_ctrls.avgQLat                     10941.82                       # Average queueing delay per DRAM burst
system.mem_ctrls.avgBusLat                    5000.00                       # Average bus latency per DRAM burst
system.mem_ctrls.avgMemAccLat                29691.82                       # Average memory access latency per DRAM burst
system.mem_ctrls.avgRdBW                        93.37                       # Average DRAM read bandwidth in MiByte/s
system.mem_ctrls.avgWrBW                        25.67                       # Average achieved write bandwidth in MiByte/s
system.mem_ctrls.avgRdBWSys                     93.39                       # Average system read bandwidth in MiByte/s
system.mem_ctrls.avgWrBWSys                     26.17                       # Average system write bandwidth in MiByte/s
system.mem_ctrls.peakBW                      12800.00                       # Theoretical peak bandwidth in MiByte/s
system.mem_ctrls.busUtil                         0.93                       # Data bus utilization in percentage
system.mem_ctrls.busUtilRead                     0.73                       # Data bus utilization in percentage for reads
system.mem_ctrls.busUtilWrite                    0.20                       # Data bus utilization in percentage for writes
system.mem_ctrls.avgRdQLen                       1.07                       # Average read queue length when enqueuing
system.mem_ctrls.avgWrQLen                      23.45                       # Average write queue length when enqueuing
system.mem_ctrls.readRowHits                     4204                       # Number of row buffer hits during reads
system.mem_ctrls.writeRowHits                    1069                       # Number of row buffer hits during writes
system.mem_ctrls.readRowHitRate                 77.41                       # Row buffer hit rate for reads
system.mem_ctrls.writeRowHitRate                70.24                       # Row buffer hit rate for writes
system.mem_ctrls.avgGap                     535161.27                       # Average gap between requests
system.mem_ctrls.pageHitRate                    75.84                       # Row buffer hit rate, read and write combined
system.mem_ctrls_0.actEnergy                  5541480                       # Energy for activate commands per rank (pJ)
system.mem_ctrls_0.preEnergy                  3023625                       # Energy for precharge commands per rank (pJ)
system.mem_ctrls_0.readEnergy                18712200                       # Energy for read commands per rank (pJ)
system.mem_ctrls_0.writeEnergy                4561920                       # Energy for write commands per rank (pJ)
system.mem_ctrls_0.refreshEnergy            243091680                       # Energy for refresh commands per rank (pJ)
system.mem_ctrls_0.actBackEnergy            988623675                       # Energy for active background per rank (pJ)
system.mem_ctrls_0.preBackEnergy           1366038750                       # Energy for precharge background per rank (pJ)
system.mem_ctrls_0.totalEnergy             2629593330                       # Total energy per rank (pJ)
system.mem_ctrls_0.averagePower            706.483480                       # Core power per rank (mW)
system.mem_ctrls_0.memoryStateTime::IDLE   2267055500                       # Time in different power states
system.mem_ctrls_0.memoryStateTime::REF     124280000                       # Time in different power states
system.mem_ctrls_0.memoryStateTime::PRE_PDN            0                       # Time in different power states
system.mem_ctrls_0.memoryStateTime::ACT    1330765750                       # Time in different power states
system.mem_ctrls_0.memoryStateTime::ACT_PDN            0                       # Time in different power states
system.mem_ctrls_1.actEnergy                  6940080                       # Energy for activate commands per rank (pJ)
system.mem_ctrls_1.preEnergy                  3786750                       # Energy for precharge commands per rank (pJ)
system.mem_ctrls_1.readEnergy                23649600                       # Energy for read commands per rank (pJ)
system.mem_ctrls_1.writeEnergy                5112720                       # Energy for write commands per rank (pJ)
system.mem_ctrls_1.refreshEnergy            243091680                       # Energy for refresh commands per rank (pJ)
system.mem_ctrls_1.actBackEnergy           1585897605                       # Energy for active background per rank (pJ)
system.mem_ctrls_1.preBackEnergy            842106000                       # Energy for precharge background per rank (pJ)
system.mem_ctrls_1.totalEnergy             2710584435                       # Total energy per rank (pJ)
system.mem_ctrls_1.averagePower            728.245762                       # Core power per rank (mW)
system.mem_ctrls_1.memoryStateTime::IDLE   1391981500                       # Time in different power states
system.mem_ctrls_1.memoryStateTime::REF     124280000                       # Time in different power states
system.mem_ctrls_1.memoryStateTime::PRE_PDN            0                       # Time in different power states
system.mem_ctrls_1.memoryStateTime::ACT    2205826000                       # Time in different power states
system.mem_ctrls_1.memoryStateTime::ACT_PDN            0                       # Time in different power states
system.cpu.branchPred.lookups                  260143                       # Number of BP lookups
system.cpu.branchPred.condPredicted             45151                       # Number of conditional branches predicted
system.cpu.branchPred.condIncorrect              2477                       # Number of conditional branches incorrect
system.cpu.branchPred.BTBLookups               148302                       # Number of BTB lookups
system.cpu.branchPred.BTBHits                  142857                       # Number of BTB hits
system.cpu.branchPred.BTBCorrect                    0                       # Number of correct BTB predictions (this stat may not work properly.
system.cpu.branchPred.BTBHitPct             96.328438                       # BTB Hit Percentage
system.cpu.branchPred.usedRAS                  106252                       # Number of times the RAS was used to get a target.
system.cpu.branchPred.RASInCorrect                 14                       # Number of incorrect RAS predictions.
system.cpu_voltage_domain.voltage                   1                       # Voltage in Volts
system.cpu_clk_domain.clock                       500                       # Clock period in ticks
system.cpu.dtb.fetch_hits                           0                       # ITB hits
system.cpu.dtb.fetch_misses                         0                       # ITB misses
system.cpu.dtb.fetch_acv                            0                       # ITB acv
system.cpu.dtb.fetch_accesses                       0                       # ITB accesses
system.cpu.dtb.read_hits                       471283                       # DTB read hits
system.cpu.dtb.read_misses                        110                       # DTB read misses
system.cpu.dtb.read_acv                             1                       # DTB read access violations
system.cpu.dtb.read_accesses                   471393                       # DTB read accesses
system.cpu.dtb.write_hits                       56802                       # DTB write hits
system.cpu.dtb.write_misses                       168                       # DTB write misses
system.cpu.dtb.write_acv                            0                       # DTB write access violations
system.cpu.dtb.write_accesses                   56970                       # DTB write accesses
system.cpu.dtb.data_hits                       528085                       # DTB hits
system.cpu.dtb.data_misses                        278                       # DTB misses
system.cpu.dtb.data_acv                             1                       # DTB access violations
system.cpu.dtb.data_accesses                   528363                       # DTB accesses
system.cpu.itb.fetch_hits                      615343                       # ITB hits
system.cpu.itb.fetch_misses                       113                       # ITB misses
system.cpu.itb.fetch_acv                            0                       # ITB acv
system.cpu.itb.fetch_accesses                  615456                       # ITB accesses
system.cpu.itb.read_hits                            0                       # DTB read hits
system.cpu.itb.read_misses                          0                       # DTB read misses
system.cpu.itb.read_acv                             0                       # DTB read access violations
system.cpu.itb.read_accesses                        0                       # DTB read accesses
system.cpu.itb.write_hits                           0                       # DTB write hits
system.cpu.itb.write_misses                         0                       # DTB write misses
system.cpu.itb.write_acv                            0                       # DTB write access violations
system.cpu.itb.write_accesses                       0                       # DTB write accesses
system.cpu.itb.data_hits                            0                       # DTB hits
system.cpu.itb.data_misses                          0                       # DTB misses
system.cpu.itb.data_acv                             0                       # DTB access violations
system.cpu.itb.data_accesses                        0                       # DTB accesses
system.cpu.workload.num_syscalls                   59                       # Number of system calls
system.cpu.numCycles                          7445337                       # number of cpu cycles simulated
system.cpu.numWorkItemsStarted                      0                       # number of work items this cpu started
system.cpu.numWorkItemsCompleted                    0                       # number of work items this cpu completed
system.cpu.fetch.icacheStallCycles             829968                       # Number of cycles fetch is stalled on an Icache miss
system.cpu.fetch.Insts                        5048443                       # Number of instructions fetch has processed
system.cpu.fetch.Branches                      260143                       # Number of branches that fetch encountered
system.cpu.fetch.predictedBranches             249109                       # Number of branches that fetch has predicted taken
system.cpu.fetch.Cycles                       6442630                       # Number of cycles fetch has run and was not squashing or blocked
system.cpu.fetch.SquashCycles                    5336                       # Number of cycles fetch has spent squashing
system.cpu.fetch.MiscStallCycles                   75                       # Number of cycles fetch has spent waiting on interrupts, or bad addresses, or out of MSHRs
system.cpu.fetch.PendingTrapStallCycles          4336                       # Number of stall cycles due to pending traps
system.cpu.fetch.CacheLines                    615343                       # Number of cache lines fetched
system.cpu.fetch.IcacheSquashes                  2175                       # Number of outstanding Icache misses that were squashed
system.cpu.fetch.rateDist::samples            7279677                       # Number of instructions fetched each cycle (Total)
system.cpu.fetch.rateDist::mean              0.693498                       # Number of instructions fetched each cycle (Total)
system.cpu.fetch.rateDist::stdev             1.894573                       # Number of instructions fetched each cycle (Total)
system.cpu.fetch.rateDist::underflows               0      0.00%      0.00% # Number of instructions fetched each cycle (Total)
system.cpu.fetch.rateDist::0                  6215033     85.38%     85.38% # Number of instructions fetched each cycle (Total)
system.cpu.fetch.rateDist::1                     3793      0.05%     85.43% # Number of instructions fetched each cycle (Total)
system.cpu.fetch.rateDist::2                   290492      3.99%     89.42% # Number of instructions fetched each cycle (Total)
system.cpu.fetch.rateDist::3                     2925      0.04%     89.46% # Number of instructions fetched each cycle (Total)
system.cpu.fetch.rateDist::4                   362679      4.98%     94.44% # Number of instructions fetched each cycle (Total)
system.cpu.fetch.rateDist::5                     2626      0.04%     94.48% # Number of instructions fetched each cycle (Total)
system.cpu.fetch.rateDist::6                   111882      1.54%     96.01% # Number of instructions fetched each cycle (Total)
system.cpu.fetch.rateDist::7                     2223      0.03%     96.04% # Number of instructions fetched each cycle (Total)
system.cpu.fetch.rateDist::8                   288024      3.96%    100.00% # Number of instructions fetched each cycle (Total)
system.cpu.fetch.rateDist::overflows                0      0.00%    100.00% # Number of instructions fetched each cycle (Total)
system.cpu.fetch.rateDist::min_value                0                       # Number of instructions fetched each cycle (Total)
system.cpu.fetch.rateDist::max_value                8                       # Number of instructions fetched each cycle (Total)
system.cpu.fetch.rateDist::total              7279677                       # Number of instructions fetched each cycle (Total)
system.cpu.fetch.branchRate                  0.034940                       # Number of branch fetches per cycle
system.cpu.fetch.rate                        0.678068                       # Number of inst fetches per cycle
system.cpu.decode.IdleCycles                   413934                       # Number of cycles decode is idle
system.cpu.decode.BlockedCycles               6222532                       # Number of cycles decode is blocked
system.cpu.decode.RunCycles                     34967                       # Number of cycles decode is running
system.cpu.decode.UnblockCycles                606418                       # Number of cycles decode is unblocking
system.cpu.decode.SquashCycles                   1826                       # Number of cycles decode is squashing
system.cpu.decode.BranchResolved               107607                       # Number of times decode resolved a branch
system.cpu.decode.BranchMispred                   851                       # Number of times decode detected a branch misprediction
system.cpu.decode.DecodedInsts                5038336                       # Number of instructions handled by decode
system.cpu.decode.SquashedInsts                  3328                       # Number of squashed instructions handled by decode
system.cpu.rename.SquashCycles                   1826                       # Number of cycles rename is squashing
system.cpu.rename.IdleCycles                   517409                       # Number of cycles rename is idle
system.cpu.rename.BlockCycles                 3091098                       # Number of cycles rename is blocking
system.cpu.rename.serializeStallCycles          15981                       # count of cycles rename stalled for serializing inst
system.cpu.rename.RunCycles                    416990                       # Number of cycles rename is running
system.cpu.rename.UnblockCycles               3236373                       # Number of cycles rename is unblocking
system.cpu.rename.RenamedInsts                5036235                       # Number of instructions processed by rename
system.cpu.rename.ROBFullEvents                   444                       # Number of times rename has blocked due to ROB full
system.cpu.rename.IQFullEvents                3066889                       # Number of times rename has blocked due to IQ full
system.cpu.rename.LQFullEvents                    188                       # Number of times rename has blocked due to LQ full
system.cpu.rename.SQFullEvents                  47650                       # Number of times rename has blocked due to SQ full
system.cpu.rename.RenamedOperands             4809697                       # Number of destination operands rename has renamed
system.cpu.rename.RenameLookups               7269793                       # Number of register rename lookups that rename has made
system.cpu.rename.int_rename_lookups          1031958                       # Number of integer rename lookups
system.cpu.rename.fp_rename_lookups           6237754                       # Number of floating rename lookups
system.cpu.rename.CommittedMaps               4794249                       # Number of HB maps that are committed
system.cpu.rename.UndoneMaps                    15347                       # Number of HB maps that are undone due to squashing
system.cpu.rename.serializingInsts                468                       # count of serializing insts renamed
system.cpu.rename.tempSerializingInsts            374                       # count of temporary serializing insts renamed
system.cpu.rename.skidInsts                   4146136                       # count of insts added to the skid buffer
system.cpu.memDep0.insertedLoads               467816                       # Number of loads inserted to the mem dependence unit.
system.cpu.memDep0.insertedStores               57852                       # Number of stores inserted to the mem dependence unit.
system.cpu.memDep0.conflictingLoads              1568                       # Number of conflicting loads.
system.cpu.memDep0.conflictingStores              530                       # Number of conflicting stores.
system.cpu.iq.iqInstsAdded                    5017580                       # Number of instructions added to the IQ (excludes non-spec)
system.cpu.iq.iqNonSpecInstsAdded                 686                       # Number of non-speculative instructions added to the IQ
system.cpu.iq.iqInstsIssued                   5018236                       # Number of instructions issued
system.cpu.iq.iqSquashedInstsIssued               116                       # Number of squashed instructions issued
system.cpu.iq.iqSquashedInstsExamined           18170                       # Number of squashed instructions iterated over during squash; mainly for profiling
system.cpu.iq.iqSquashedOperandsExamined         8299                       # Number of squashed operands that are examined and possibly removed from graph
system.cpu.iq.iqSquashedNonSpecRemoved             45                       # Number of squashed non-spec instructions that were removed
system.cpu.iq.issued_per_cycle::samples       7279677                       # Number of insts issued each cycle
system.cpu.iq.issued_per_cycle::mean         0.689349                       # Number of insts issued each cycle
system.cpu.iq.issued_per_cycle::stdev        0.799144                       # Number of insts issued each cycle
system.cpu.iq.issued_per_cycle::underflows            0      0.00%      0.00% # Number of insts issued each cycle
system.cpu.iq.issued_per_cycle::0             3443325     47.30%     47.30% # Number of insts issued each cycle
system.cpu.iq.issued_per_cycle::1             2931896     40.28%     87.58% # Number of insts issued each cycle
system.cpu.iq.issued_per_cycle::2              676759      9.30%     96.87% # Number of insts issued each cycle
system.cpu.iq.issued_per_cycle::3              202583      2.78%     99.66% # Number of insts issued each cycle
system.cpu.iq.issued_per_cycle::4                8461      0.12%     99.77% # Number of insts issued each cycle
system.cpu.iq.issued_per_cycle::5               11463      0.16%     99.93% # Number of insts issued each cycle
system.cpu.iq.issued_per_cycle::6                3073      0.04%     99.97% # Number of insts issued each cycle
system.cpu.iq.issued_per_cycle::7                1460      0.02%     99.99% # Number of insts issued each cycle
system.cpu.iq.issued_per_cycle::8                 657      0.01%    100.00% # Number of insts issued each cycle
system.cpu.iq.issued_per_cycle::overflows            0      0.00%    100.00% # Number of insts issued each cycle
system.cpu.iq.issued_per_cycle::min_value            0                       # Number of insts issued each cycle
system.cpu.iq.issued_per_cycle::max_value            8                       # Number of insts issued each cycle
system.cpu.iq.issued_per_cycle::total         7279677                       # Number of insts issued each cycle
system.cpu.iq.fu_full::No_OpClass                   0      0.00%      0.00% # attempts to use FU when none available
system.cpu.iq.fu_full::IntAlu                     137      0.56%      0.56% # attempts to use FU when none available
system.cpu.iq.fu_full::IntMult                      0      0.00%      0.56% # attempts to use FU when none available
system.cpu.iq.fu_full::IntDiv                       0      0.00%      0.56% # attempts to use FU when none available
system.cpu.iq.fu_full::FloatAdd                     0      0.00%      0.56% # attempts to use FU when none available
system.cpu.iq.fu_full::FloatCmp                     0      0.00%      0.56% # attempts to use FU when none available
system.cpu.iq.fu_full::FloatCvt                     0      0.00%      0.56% # attempts to use FU when none available
system.cpu.iq.fu_full::FloatMult                19100     78.68%     79.24% # attempts to use FU when none available
system.cpu.iq.fu_full::FloatDiv                     0      0.00%     79.24% # attempts to use FU when none available
system.cpu.iq.fu_full::FloatSqrt                    0      0.00%     79.24% # attempts to use FU when none available
system.cpu.iq.fu_full::SimdAdd                      0      0.00%     79.24% # attempts to use FU when none available
system.cpu.iq.fu_full::SimdAddAcc                   0      0.00%     79.24% # attempts to use FU when none available
system.cpu.iq.fu_full::SimdAlu                      0      0.00%     79.24% # attempts to use FU when none available
system.cpu.iq.fu_full::SimdCmp                      0      0.00%     79.24% # attempts to use FU when none available
system.cpu.iq.fu_full::SimdCvt                      0      0.00%     79.24% # attempts to use FU when none available
system.cpu.iq.fu_full::SimdMisc                     0      0.00%     79.24% # attempts to use FU when none available
system.cpu.iq.fu_full::SimdMult                     0      0.00%     79.24% # attempts to use FU when none available
system.cpu.iq.fu_full::SimdMultAcc                  0      0.00%     79.24% # attempts to use FU when none available
system.cpu.iq.fu_full::SimdShift                    0      0.00%     79.24% # attempts to use FU when none available
system.cpu.iq.fu_full::SimdShiftAcc                 0      0.00%     79.24% # attempts to use FU when none available
system.cpu.iq.fu_full::SimdSqrt                     0      0.00%     79.24% # attempts to use FU when none available
system.cpu.iq.fu_full::SimdFloatAdd                 0      0.00%     79.24% # attempts to use FU when none available
system.cpu.iq.fu_full::SimdFloatAlu                 0      0.00%     79.24% # attempts to use FU when none available
system.cpu.iq.fu_full::SimdFloatCmp                 0      0.00%     79.24% # attempts to use FU when none available
system.cpu.iq.fu_full::SimdFloatCvt                 0      0.00%     79.24% # attempts to use FU when none available
system.cpu.iq.fu_full::SimdFloatDiv                 0      0.00%     79.24% # attempts to use FU when none available
system.cpu.iq.fu_full::SimdFloatMisc                0      0.00%     79.24% # attempts to use FU when none available
system.cpu.iq.fu_full::SimdFloatMult                0      0.00%     79.24% # attempts to use FU when none available
system.cpu.iq.fu_full::SimdFloatMultAcc             0      0.00%     79.24% # attempts to use FU when none available
system.cpu.iq.fu_full::SimdFloatSqrt                0      0.00%     79.24% # attempts to use FU when none available
system.cpu.iq.fu_full::MemRead                   2943     12.12%     91.37% # attempts to use FU when none available
system.cpu.iq.fu_full::MemWrite                  2096      8.63%    100.00% # attempts to use FU when none available
system.cpu.iq.fu_full::IprAccess                    0      0.00%    100.00% # attempts to use FU when none available
system.cpu.iq.fu_full::InstPrefetch                 0      0.00%    100.00% # attempts to use FU when none available
system.cpu.iq.FU_type_0::No_OpClass                 0      0.00%      0.00% # Type of FU issued
system.cpu.iq.FU_type_0::IntAlu                517972     10.32%     10.32% # Type of FU issued
system.cpu.iq.FU_type_0::IntMult                  143      0.00%     10.32% # Type of FU issued
system.cpu.iq.FU_type_0::IntDiv                     0      0.00%     10.32% # Type of FU issued
system.cpu.iq.FU_type_0::FloatAdd             2647404     52.76%     63.08% # Type of FU issued
system.cpu.iq.FU_type_0::FloatCmp                   8      0.00%     63.08% # Type of FU issued
system.cpu.iq.FU_type_0::FloatCvt                   0      0.00%     63.08% # Type of FU issued
system.cpu.iq.FU_type_0::FloatMult            1323541     26.37%     89.46% # Type of FU issued
system.cpu.iq.FU_type_0::FloatDiv                   0      0.00%     89.46% # Type of FU issued
system.cpu.iq.FU_type_0::FloatSqrt                  0      0.00%     89.46% # Type of FU issued
system.cpu.iq.FU_type_0::SimdAdd                    0      0.00%     89.46% # Type of FU issued
system.cpu.iq.FU_type_0::SimdAddAcc                 0      0.00%     89.46% # Type of FU issued
system.cpu.iq.FU_type_0::SimdAlu                    0      0.00%     89.46% # Type of FU issued
system.cpu.iq.FU_type_0::SimdCmp                    0      0.00%     89.46% # Type of FU issued
system.cpu.iq.FU_type_0::SimdCvt                    0      0.00%     89.46% # Type of FU issued
system.cpu.iq.FU_type_0::SimdMisc                   0      0.00%     89.46% # Type of FU issued
system.cpu.iq.FU_type_0::SimdMult                   0      0.00%     89.46% # Type of FU issued
system.cpu.iq.FU_type_0::SimdMultAcc                0      0.00%     89.46% # Type of FU issued
system.cpu.iq.FU_type_0::SimdShift                  0      0.00%     89.46% # Type of FU issued
system.cpu.iq.FU_type_0::SimdShiftAcc               0      0.00%     89.46% # Type of FU issued
system.cpu.iq.FU_type_0::SimdSqrt                   0      0.00%     89.46% # Type of FU issued
system.cpu.iq.FU_type_0::SimdFloatAdd               0      0.00%     89.46% # Type of FU issued
system.cpu.iq.FU_type_0::SimdFloatAlu               0      0.00%     89.46% # Type of FU issued
system.cpu.iq.FU_type_0::SimdFloatCmp               0      0.00%     89.46% # Type of FU issued
system.cpu.iq.FU_type_0::SimdFloatCvt               0      0.00%     89.46% # Type of FU issued
system.cpu.iq.FU_type_0::SimdFloatDiv               0      0.00%     89.46% # Type of FU issued
system.cpu.iq.FU_type_0::SimdFloatMisc              0      0.00%     89.46% # Type of FU issued
system.cpu.iq.FU_type_0::SimdFloatMult              0      0.00%     89.46% # Type of FU issued
system.cpu.iq.FU_type_0::SimdFloatMultAcc            0      0.00%     89.46% # Type of FU issued
system.cpu.iq.FU_type_0::SimdFloatSqrt              0      0.00%     89.46% # Type of FU issued
system.cpu.iq.FU_type_0::MemRead               472015      9.41%     98.86% # Type of FU issued
system.cpu.iq.FU_type_0::MemWrite               57153      1.14%    100.00% # Type of FU issued
system.cpu.iq.FU_type_0::IprAccess                  0      0.00%    100.00% # Type of FU issued
system.cpu.iq.FU_type_0::InstPrefetch               0      0.00%    100.00% # Type of FU issued
system.cpu.iq.FU_type_0::total                5018236                       # Type of FU issued
system.cpu.iq.rate                           0.674011                       # Inst issue rate
system.cpu.iq.fu_busy_cnt                       24276                       # FU busy when requested
system.cpu.iq.fu_busy_rate                   0.004838                       # FU busy rate (busy events/executed inst)
system.cpu.iq.int_inst_queue_reads            8462114                       # Number of integer instruction queue reads
system.cpu.iq.int_inst_queue_writes            604646                       # Number of integer instruction queue writes
system.cpu.iq.int_inst_queue_wakeup_accesses       581512                       # Number of integer instruction queue wakeup accesses
system.cpu.iq.fp_inst_queue_reads             8878426                       # Number of floating instruction queue reads
system.cpu.iq.fp_inst_queue_writes            4431859                       # Number of floating instruction queue writes
system.cpu.iq.fp_inst_queue_wakeup_accesses      4429606                       # Number of floating instruction queue wakeup accesses
system.cpu.iq.int_alu_accesses                 593716                       # Number of integer alu accesses
system.cpu.iq.fp_alu_accesses                 4448796                       # Number of floating point alu accesses
system.cpu.iew.lsq.thread0.forwLoads             1439                       # Number of loads that had data forwarded from stores
system.cpu.iew.lsq.thread0.invAddrLoads             0                       # Number of loads ignored due to an invalid address
system.cpu.iew.lsq.thread0.squashedLoads         3200                       # Number of loads squashed
system.cpu.iew.lsq.thread0.ignoredResponses           34                       # Number of memory responses ignored because the instruction is squashed
system.cpu.iew.lsq.thread0.memOrderViolation           77                       # Number of memory ordering violations
system.cpu.iew.lsq.thread0.squashedStores         2329                       # Number of stores squashed
system.cpu.iew.lsq.thread0.invAddrSwpfs             0                       # Number of software prefetches ignored due to an invalid address
system.cpu.iew.lsq.thread0.blockedLoads             0                       # Number of blocked loads due to partial load-store forwarding
system.cpu.iew.lsq.thread0.rescheduledLoads           75                       # Number of loads that were rescheduled
system.cpu.iew.lsq.thread0.cacheBlocked          4829                       # Number of times an access to memory failed due to the cache being blocked
system.cpu.iew.iewIdleCycles                        0                       # Number of cycles IEW is idle
system.cpu.iew.iewSquashCycles                   1826                       # Number of cycles IEW is squashing
system.cpu.iew.iewBlockCycles                  750324                       # Number of cycles IEW is blocking
system.cpu.iew.iewUnblockCycles                233524                       # Number of cycles IEW is unblocking
system.cpu.iew.iewDispatchedInsts             5033001                       # Number of instructions dispatched to IQ
system.cpu.iew.iewDispSquashedInsts               508                       # Number of squashed instructions skipped by dispatch
system.cpu.iew.iewDispLoadInsts                467816                       # Number of dispatched load instructions
system.cpu.iew.iewDispStoreInsts                57852                       # Number of dispatched store instructions
system.cpu.iew.iewDispNonSpecInsts                371                       # Number of dispatched non-speculative instructions
system.cpu.iew.iewIQFullEvents                  95445                       # Number of times the IQ has become full, causing a stall
system.cpu.iew.iewLSQFullEvents                 17125                       # Number of times the LSQ has become full, causing a stall
system.cpu.iew.memOrderViolationEvents             77                       # Number of memory order violations
system.cpu.iew.predictedTakenIncorrect            433                       # Number of branches that were predicted taken incorrectly
system.cpu.iew.predictedNotTakenIncorrect         1397                       # Number of branches that were predicted not taken incorrectly
system.cpu.iew.branchMispredicts                 1830                       # Number of branch mispredicts detected at execute
system.cpu.iew.iewExecutedInsts               5016628                       # Number of executed instructions
system.cpu.iew.iewExecLoadInsts                471394                       # Number of load instructions executed
system.cpu.iew.iewExecSquashedInsts              1607                       # Number of squashed instructions skipped in execute
system.cpu.iew.exec_swp                             0                       # number of swp insts executed
system.cpu.iew.exec_nop                         14735                       # number of nop insts executed
system.cpu.iew.exec_refs                       528365                       # number of memory reference insts executed
system.cpu.iew.exec_branches                   257067                       # Number of branches executed
system.cpu.iew.exec_stores                      56971                       # Number of stores executed
system.cpu.iew.exec_rate                     0.673795                       # Inst execution rate
system.cpu.iew.wb_sent                        5011588                       # cumulative count of insts sent to commit
system.cpu.iew.wb_count                       5011118                       # cumulative count of insts written-back
system.cpu.iew.wb_producers                   4231770                       # num instructions producing a value
system.cpu.iew.wb_consumers                   5225038                       # num instructions consuming a value
system.cpu.iew.wb_penalized                         0                       # number of instrctions required to write to 'other' IQ
system.cpu.iew.wb_rate                       0.673055                       # insts written-back per cycle
system.cpu.iew.wb_fanout                     0.809902                       # average fanout of values written-back
system.cpu.iew.wb_penalized_rate                    0                       # fraction of instructions written-back that wrote to 'other' IQ
system.cpu.commit.commitSquashedInsts           19122                       # The number of squashed insts skipped by commit
system.cpu.commit.commitNonSpecStalls             641                       # The number of times commit has been forced to stall to communicate backwards
system.cpu.commit.branchMispredicts              1635                       # The number of times a branch was mispredicted
system.cpu.commit.committed_per_cycle::samples      7276194                       # Number of insts commited each cycle
system.cpu.commit.committed_per_cycle::mean     0.689028                       # Number of insts commited each cycle
system.cpu.commit.committed_per_cycle::stdev     1.307457                       # Number of insts commited each cycle
system.cpu.commit.committed_per_cycle::underflows            0      0.00%      0.00% # Number of insts commited each cycle
system.cpu.commit.committed_per_cycle::0      4473398     61.48%     61.48% # Number of insts commited each cycle
system.cpu.commit.committed_per_cycle::1      1722636     23.67%     85.15% # Number of insts commited each cycle
system.cpu.commit.committed_per_cycle::2       724785      9.96%     95.12% # Number of insts commited each cycle
system.cpu.commit.committed_per_cycle::3       158886      2.18%     97.30% # Number of insts commited each cycle
system.cpu.commit.committed_per_cycle::4         4236      0.06%     97.36% # Number of insts commited each cycle
system.cpu.commit.committed_per_cycle::5        53343      0.73%     98.09% # Number of insts commited each cycle
system.cpu.commit.committed_per_cycle::6         1939      0.03%     98.12% # Number of insts commited each cycle
system.cpu.commit.committed_per_cycle::7        26424      0.36%     98.48% # Number of insts commited each cycle
system.cpu.commit.committed_per_cycle::8       110547      1.52%    100.00% # Number of insts commited each cycle
system.cpu.commit.committed_per_cycle::overflows            0      0.00%    100.00% # Number of insts commited each cycle
system.cpu.commit.committed_per_cycle::min_value            0                       # Number of insts commited each cycle
system.cpu.commit.committed_per_cycle::max_value            8                       # Number of insts commited each cycle
system.cpu.commit.committed_per_cycle::total      7276194                       # Number of insts commited each cycle
system.cpu.commit.committedInsts              5013501                       # Number of instructions committed
system.cpu.commit.committedOps                5013501                       # Number of ops (including micro ops) committed
system.cpu.commit.swp_count                         0                       # Number of s/w prefetches committed
system.cpu.commit.refs                         520131                       # Number of memory references committed
system.cpu.commit.loads                        464608                       # Number of loads committed
system.cpu.commit.membars                         292                       # Number of memory barriers committed
system.cpu.commit.branches                     254984                       # Number of branches committed
system.cpu.commit.fp_insts                    4428921                       # Number of committed floating point instructions.
system.cpu.commit.int_insts                   1027906                       # Number of committed integer instructions.
system.cpu.commit.function_calls               105675                       # Number of function calls committed.
system.cpu.commit.op_class_0::No_OpClass        13499      0.27%      0.27% # Class of committed instruction
system.cpu.commit.op_class_0::IntAlu           509022     10.15%     10.42% # Class of committed instruction
system.cpu.commit.op_class_0::IntMult             138      0.00%     10.43% # Class of committed instruction
system.cpu.commit.op_class_0::IntDiv                0      0.00%     10.43% # Class of committed instruction
system.cpu.commit.op_class_0::FloatAdd        2647019     52.80%     63.22% # Class of committed instruction
system.cpu.commit.op_class_0::FloatCmp              8      0.00%     63.22% # Class of committed instruction
system.cpu.commit.op_class_0::FloatCvt              0      0.00%     63.22% # Class of committed instruction
system.cpu.commit.op_class_0::FloatMult       1323392     26.40%     89.62% # Class of committed instruction
system.cpu.commit.op_class_0::FloatDiv              0      0.00%     89.62% # Class of committed instruction
system.cpu.commit.op_class_0::FloatSqrt             0      0.00%     89.62% # Class of committed instruction
system.cpu.commit.op_class_0::SimdAdd               0      0.00%     89.62% # Class of committed instruction
system.cpu.commit.op_class_0::SimdAddAcc            0      0.00%     89.62% # Class of committed instruction
system.cpu.commit.op_class_0::SimdAlu               0      0.00%     89.62% # Class of committed instruction
system.cpu.commit.op_class_0::SimdCmp               0      0.00%     89.62% # Class of committed instruction
system.cpu.commit.op_class_0::SimdCvt               0      0.00%     89.62% # Class of committed instruction
system.cpu.commit.op_class_0::SimdMisc              0      0.00%     89.62% # Class of committed instruction
system.cpu.commit.op_class_0::SimdMult              0      0.00%     89.62% # Class of committed instruction
system.cpu.commit.op_class_0::SimdMultAcc            0      0.00%     89.62% # Class of committed instruction
system.cpu.commit.op_class_0::SimdShift             0      0.00%     89.62% # Class of committed instruction
system.cpu.commit.op_class_0::SimdShiftAcc            0      0.00%     89.62% # Class of committed instruction
system.cpu.commit.op_class_0::SimdSqrt              0      0.00%     89.62% # Class of committed instruction
system.cpu.commit.op_class_0::SimdFloatAdd            0      0.00%     89.62% # Class of committed instruction
system.cpu.commit.op_class_0::SimdFloatAlu            0      0.00%     89.62% # Class of committed instruction
system.cpu.commit.op_class_0::SimdFloatCmp            0      0.00%     89.62% # Class of committed instruction
system.cpu.commit.op_class_0::SimdFloatCvt            0      0.00%     89.62% # Class of committed instruction
system.cpu.commit.op_class_0::SimdFloatDiv            0      0.00%     89.62% # Class of committed instruction
system.cpu.commit.op_class_0::SimdFloatMisc            0      0.00%     89.62% # Class of committed instruction
system.cpu.commit.op_class_0::SimdFloatMult            0      0.00%     89.62% # Class of committed instruction
system.cpu.commit.op_class_0::SimdFloatMultAcc            0      0.00%     89.62% # Class of committed instruction
system.cpu.commit.op_class_0::SimdFloatSqrt            0      0.00%     89.62% # Class of committed instruction
system.cpu.commit.op_class_0::MemRead          464900      9.27%     98.89% # Class of committed instruction
system.cpu.commit.op_class_0::MemWrite          55523      1.11%    100.00% # Class of committed instruction
system.cpu.commit.op_class_0::IprAccess             0      0.00%    100.00% # Class of committed instruction
system.cpu.commit.op_class_0::InstPrefetch            0      0.00%    100.00% # Class of committed instruction
system.cpu.commit.op_class_0::total           5013501                       # Class of committed instruction
system.cpu.commit.bw_lim_events                110547                       # number cycles where commit BW limit reached
system.cpu.rob.rob_reads                     12196541                       # The number of ROB reads
system.cpu.rob.rob_writes                    10068841                       # The number of ROB writes
system.cpu.timesIdled                            8489                       # Number of times that the entire CPU went into an idle state and unscheduled itself
system.cpu.idleCycles                          165660                       # Total number of cycles that the CPU has spent unscheduled due to idling
system.cpu.committedInsts                     5000002                       # Number of Instructions Simulated
system.cpu.committedOps                       5000002                       # Number of Ops (including micro ops) Simulated
system.cpu.cpi                               1.489067                       # CPI: Cycles Per Instruction
system.cpu.cpi_total                         1.489067                       # CPI: Total CPI of All Threads
system.cpu.ipc                               0.671562                       # IPC: Instructions Per Cycle
system.cpu.ipc_total                         0.671562                       # IPC: Total IPC of All Threads
system.cpu.int_regfile_reads                  1025207                       # number of integer regfile reads
system.cpu.int_regfile_writes                  399267                       # number of integer regfile writes
system.cpu.fp_regfile_reads                   6236407                       # number of floating regfile reads
system.cpu.fp_regfile_writes                  4403504                       # number of floating regfile writes
system.cpu.misc_regfile_reads                     661                       # number of misc regfile reads
system.cpu.misc_regfile_writes                    582                       # number of misc regfile writes
system.cpu.dcache.tags.replacements              3565                       # number of replacements
system.cpu.dcache.tags.tagsinuse           507.322117                       # Cycle average of tags in use
system.cpu.dcache.tags.total_refs              512331                       # Total number of references to valid blocks.
system.cpu.dcache.tags.sampled_refs              4077                       # Sample count of references to valid blocks.
system.cpu.dcache.tags.avg_refs            125.663723                       # Average number of references to valid blocks.
system.cpu.dcache.tags.warmup_cycle         180762750                       # Cycle when the warmup percentage was hit.
system.cpu.dcache.tags.occ_blocks::cpu.data   507.322117                       # Average occupied blocks per requestor
system.cpu.dcache.tags.occ_percent::cpu.data     0.990864                       # Average percentage of cache occupancy
system.cpu.dcache.tags.occ_percent::total     0.990864                       # Average percentage of cache occupancy
system.cpu.dcache.tags.occ_task_id_blocks::1024          512                       # Occupied blocks per task id
system.cpu.dcache.tags.age_task_id_blocks_1024::0            5                       # Occupied blocks per task id
system.cpu.dcache.tags.age_task_id_blocks_1024::1           41                       # Occupied blocks per task id
system.cpu.dcache.tags.age_task_id_blocks_1024::2          412                       # Occupied blocks per task id
system.cpu.dcache.tags.age_task_id_blocks_1024::3           54                       # Occupied blocks per task id
system.cpu.dcache.tags.occ_task_id_percent::1024            1                       # Percentage of cache occupancy per task id
system.cpu.dcache.tags.tag_accesses           2088061                       # Number of tag accesses
system.cpu.dcache.tags.data_accesses          2088061                       # Number of data accesses
system.cpu.dcache.ReadReq_hits::cpu.data       464041                       # number of ReadReq hits
system.cpu.dcache.ReadReq_hits::total          464041                       # number of ReadReq hits
system.cpu.dcache.WriteReq_hits::cpu.data        47715                       # number of WriteReq hits
system.cpu.dcache.WriteReq_hits::total          47715                       # number of WriteReq hits
system.cpu.dcache.LoadLockedReq_hits::cpu.data          285                       # number of LoadLockedReq hits
system.cpu.dcache.LoadLockedReq_hits::total          285                       # number of LoadLockedReq hits
system.cpu.dcache.StoreCondReq_hits::cpu.data          290                       # number of StoreCondReq hits
system.cpu.dcache.StoreCondReq_hits::total          290                       # number of StoreCondReq hits
system.cpu.dcache.demand_hits::cpu.data        511756                       # number of demand (read+write) hits
system.cpu.dcache.demand_hits::total           511756                       # number of demand (read+write) hits
system.cpu.dcache.overall_hits::cpu.data       511756                       # number of overall hits
system.cpu.dcache.overall_hits::total          511756                       # number of overall hits
system.cpu.dcache.ReadReq_misses::cpu.data         1136                       # number of ReadReq misses
system.cpu.dcache.ReadReq_misses::total          1136                       # number of ReadReq misses
system.cpu.dcache.WriteReq_misses::cpu.data         7518                       # number of WriteReq misses
system.cpu.dcache.WriteReq_misses::total         7518                       # number of WriteReq misses
system.cpu.dcache.LoadLockedReq_misses::cpu.data           11                       # number of LoadLockedReq misses
system.cpu.dcache.LoadLockedReq_misses::total           11                       # number of LoadLockedReq misses
system.cpu.dcache.demand_misses::cpu.data         8654                       # number of demand (read+write) misses
system.cpu.dcache.demand_misses::total           8654                       # number of demand (read+write) misses
system.cpu.dcache.overall_misses::cpu.data         8654                       # number of overall misses
system.cpu.dcache.overall_misses::total          8654                       # number of overall misses
system.cpu.dcache.ReadReq_miss_latency::cpu.data     73728000                       # number of ReadReq miss cycles
system.cpu.dcache.ReadReq_miss_latency::total     73728000                       # number of ReadReq miss cycles
system.cpu.dcache.WriteReq_miss_latency::cpu.data    546885098                       # number of WriteReq miss cycles
system.cpu.dcache.WriteReq_miss_latency::total    546885098                       # number of WriteReq miss cycles
system.cpu.dcache.LoadLockedReq_miss_latency::cpu.data       427750                       # number of LoadLockedReq miss cycles
system.cpu.dcache.LoadLockedReq_miss_latency::total       427750                       # number of LoadLockedReq miss cycles
system.cpu.dcache.demand_miss_latency::cpu.data    620613098                       # number of demand (read+write) miss cycles
system.cpu.dcache.demand_miss_latency::total    620613098                       # number of demand (read+write) miss cycles
system.cpu.dcache.overall_miss_latency::cpu.data    620613098                       # number of overall miss cycles
system.cpu.dcache.overall_miss_latency::total    620613098                       # number of overall miss cycles
system.cpu.dcache.ReadReq_accesses::cpu.data       465177                       # number of ReadReq accesses(hits+misses)
system.cpu.dcache.ReadReq_accesses::total       465177                       # number of ReadReq accesses(hits+misses)
system.cpu.dcache.WriteReq_accesses::cpu.data        55233                       # number of WriteReq accesses(hits+misses)
system.cpu.dcache.WriteReq_accesses::total        55233                       # number of WriteReq accesses(hits+misses)
system.cpu.dcache.LoadLockedReq_accesses::cpu.data          296                       # number of LoadLockedReq accesses(hits+misses)
system.cpu.dcache.LoadLockedReq_accesses::total          296                       # number of LoadLockedReq accesses(hits+misses)
system.cpu.dcache.StoreCondReq_accesses::cpu.data          290                       # number of StoreCondReq accesses(hits+misses)
system.cpu.dcache.StoreCondReq_accesses::total          290                       # number of StoreCondReq accesses(hits+misses)
system.cpu.dcache.demand_accesses::cpu.data       520410                       # number of demand (read+write) accesses
system.cpu.dcache.demand_accesses::total       520410                       # number of demand (read+write) accesses
system.cpu.dcache.overall_accesses::cpu.data       520410                       # number of overall (read+write) accesses
system.cpu.dcache.overall_accesses::total       520410                       # number of overall (read+write) accesses
system.cpu.dcache.ReadReq_miss_rate::cpu.data     0.002442                       # miss rate for ReadReq accesses
system.cpu.dcache.ReadReq_miss_rate::total     0.002442                       # miss rate for ReadReq accesses
system.cpu.dcache.WriteReq_miss_rate::cpu.data     0.136114                       # miss rate for WriteReq accesses
system.cpu.dcache.WriteReq_miss_rate::total     0.136114                       # miss rate for WriteReq accesses
system.cpu.dcache.LoadLockedReq_miss_rate::cpu.data     0.037162                       # miss rate for LoadLockedReq accesses
system.cpu.dcache.LoadLockedReq_miss_rate::total     0.037162                       # miss rate for LoadLockedReq accesses
system.cpu.dcache.demand_miss_rate::cpu.data     0.016629                       # miss rate for demand accesses
system.cpu.dcache.demand_miss_rate::total     0.016629                       # miss rate for demand accesses
system.cpu.dcache.overall_miss_rate::cpu.data     0.016629                       # miss rate for overall accesses
system.cpu.dcache.overall_miss_rate::total     0.016629                       # miss rate for overall accesses
system.cpu.dcache.ReadReq_avg_miss_latency::cpu.data 64901.408451                       # average ReadReq miss latency
system.cpu.dcache.ReadReq_avg_miss_latency::total 64901.408451                       # average ReadReq miss latency
system.cpu.dcache.WriteReq_avg_miss_latency::cpu.data 72743.428837                       # average WriteReq miss latency
system.cpu.dcache.WriteReq_avg_miss_latency::total 72743.428837                       # average WriteReq miss latency
system.cpu.dcache.LoadLockedReq_avg_miss_latency::cpu.data 38886.363636                       # average LoadLockedReq miss latency
[...]
system.l2.ReadReq_hits::cpu.data                  131                       # number of ReadReq hits
system.l2.ReadReq_hits::total                    9501                       # number of ReadReq hits
system.l2.Writeback_hits::writebacks             3251                       # number of Writeback hits
system.l2.Writeback_hits::total                  3251                       # number of Writeback hits
system.l2.ReadExReq_hits::cpu.data                 36                       # number of ReadExReq hits
system.l2.ReadExReq_hits::total                    36                       # number of ReadExReq hits
system.l2.demand_hits::cpu.inst                  9370                       # number of demand (read+write) hits
system.l2.demand_hits::cpu.data                   167                       # number of demand (read+write) hits
system.l2.demand_hits::total                     9537                       # number of demand (read+write) hits
system.l2.overall_hits::cpu.inst                 9370                       # number of overall hits
system.l2.overall_hits::cpu.data                  167                       # number of overall hits
system.l2.overall_hits::total                    9537                       # number of overall hits
system.l2.ReadReq_misses::cpu.inst               1522                       # number of ReadReq misses
system.l2.ReadReq_misses::cpu.data                658                       # number of ReadReq misses
system.l2.ReadReq_misses::total                  2180                       # number of ReadReq misses
system.l2.ReadExReq_misses::cpu.data             3252                       # number of ReadExReq misses
system.l2.ReadExReq_misses::total                3252                       # number of ReadExReq misses
system.l2.demand_misses::cpu.inst                1522                       # number of demand (read+write) misses
system.l2.demand_misses::cpu.data                3910                       # number of demand (read+write) misses
system.l2.demand_misses::total                   5432                       # number of demand (read+write) misses
system.l2.overall_misses::cpu.inst               1522                       # number of overall misses
system.l2.overall_misses::cpu.data               3910                       # number of overall misses
system.l2.overall_misses::total                  5432                       # number of overall misses
system.l2.ReadReq_miss_latency::cpu.inst    114115500                       # number of ReadReq miss cycles
system.l2.ReadReq_miss_latency::cpu.data     52651000                       # number of ReadReq miss cycles
system.l2.ReadReq_miss_latency::total       166766500                       # number of ReadReq miss cycles
system.l2.ReadExReq_miss_latency::cpu.data    241184250                       # number of ReadExReq miss cycles
system.l2.ReadExReq_miss_latency::total     241184250                       # number of ReadExReq miss cycles
system.l2.demand_miss_latency::cpu.inst     114115500                       # number of demand (read+write) miss cycles
system.l2.demand_miss_latency::cpu.data     293835250                       # number of demand (read+write) miss cycles
system.l2.demand_miss_latency::total        407950750                       # number of demand (read+write) miss cycles
system.l2.overall_miss_latency::cpu.inst    114115500                       # number of overall miss cycles
system.l2.overall_miss_latency::cpu.data    293835250                       # number of overall miss cycles
system.l2.overall_miss_latency::total       407950750                       # number of overall miss cycles
system.l2.ReadReq_accesses::cpu.inst            10892                       # number of ReadReq accesses(hits+misses)
system.l2.ReadReq_accesses::cpu.data              789                       # number of ReadReq accesses(hits+misses)
system.l2.ReadReq_accesses::total               11681                       # number of ReadReq accesses(hits+misses)
system.l2.Writeback_accesses::writebacks         3251                       # number of Writeback accesses(hits+misses)
system.l2.Writeback_accesses::total              3251                       # number of Writeback accesses(hits+misses)
system.l2.ReadExReq_accesses::cpu.data           3288                       # number of ReadExReq accesses(hits+misses)
system.l2.ReadExReq_accesses::total              3288                       # number of ReadExReq accesses(hits+misses)
system.l2.demand_accesses::cpu.inst             10892                       # number of demand (read+write) accesses
system.l2.demand_accesses::cpu.data              4077                       # number of demand (read+write) accesses
system.l2.demand_accesses::total                14969                       # number of demand (read+write) accesses
system.l2.overall_accesses::cpu.inst            10892                       # number of overall (read+write) accesses
system.l2.overall_accesses::cpu.data             4077                       # number of overall (read+write) accesses
system.l2.overall_accesses::total               14969                       # number of overall (read+write) accesses
system.l2.ReadReq_miss_rate::cpu.inst        0.139736                       # miss rate for ReadReq accesses
system.l2.ReadReq_miss_rate::cpu.data        0.833967                       # miss rate for ReadReq accesses
system.l2.ReadReq_miss_rate::total           0.186628                       # miss rate for ReadReq accesses
system.l2.ReadExReq_miss_rate::cpu.data      0.989051                       # miss rate for ReadExReq accesses
system.l2.ReadExReq_miss_rate::total         0.989051                       # miss rate for ReadExReq accesses
system.l2.demand_miss_rate::cpu.inst         0.139736                       # miss rate for demand accesses
system.l2.demand_miss_rate::cpu.data         0.959039                       # miss rate for demand accesses
system.l2.demand_miss_rate::total            0.362883                       # miss rate for demand accesses
system.l2.overall_miss_rate::cpu.inst        0.139736                       # miss rate for overall accesses
system.l2.overall_miss_rate::cpu.data        0.959039                       # miss rate for overall accesses
system.l2.overall_miss_rate::total           0.362883                       # miss rate for overall accesses
system.l2.ReadReq_avg_miss_latency::cpu.inst 74977.332457                       # average ReadReq miss latency
system.l2.ReadReq_avg_miss_latency::cpu.data 80016.717325                       # average ReadReq miss latency
system.l2.ReadReq_avg_miss_latency::total 76498.394495                       # average ReadReq miss latency
system.l2.ReadExReq_avg_miss_latency::cpu.data 74164.898524                       # average ReadExReq miss latency
system.l2.ReadExReq_avg_miss_latency::total 74164.898524                       # average ReadExReq miss latency
system.l2.demand_avg_miss_latency::cpu.inst 74977.332457                       # average overall miss latency
system.l2.demand_avg_miss_latency::cpu.data 75149.680307                       # average overall miss latency
system.l2.demand_avg_miss_latency::total 75101.389912                       # average overall miss latency
system.l2.overall_avg_miss_latency::cpu.inst 74977.332457                       # average overall miss latency
system.l2.overall_avg_miss_latency::cpu.data 75149.680307                       # average overall miss latency
system.l2.overall_avg_miss_latency::total 75101.389912                       # average overall miss latency
system.l2.blocked_cycles::no_mshrs                  0                       # number of cycles access was blocked
system.l2.blocked_cycles::no_targets                0                       # number of cycles access was blocked
system.l2.blocked::no_mshrs                         0                       # number of cycles access was blocked
system.l2.blocked::no_targets                       0                       # number of cycles access was blocked
system.l2.avg_blocked_cycles::no_mshrs            nan                       # average number of cycles each access was blocked
system.l2.avg_blocked_cycles::no_targets          nan                       # average number of cycles each access was blocked
system.l2.fast_writes                               0                       # number of fast writes performed
system.l2.cache_copies                              0                       # number of cache copies performed
system.l2.writebacks::writebacks                 1522                       # number of writebacks
system.l2.writebacks::total                      1522                       # number of writebacks
system.l2.ReadReq_mshr_misses::cpu.inst          1522                       # number of ReadReq MSHR misses
system.l2.ReadReq_mshr_misses::cpu.data           658                       # number of ReadReq MSHR misses
system.l2.ReadReq_mshr_misses::total             2180                       # number of ReadReq MSHR misses
system.l2.ReadExReq_mshr_misses::cpu.data         3252                       # number of ReadExReq MSHR misses
system.l2.ReadExReq_mshr_misses::total           3252                       # number of ReadExReq MSHR misses
system.l2.demand_mshr_misses::cpu.inst           1522                       # number of demand (read+write) MSHR misses
system.l2.demand_mshr_misses::cpu.data           3910                       # number of demand (read+write) MSHR misses
system.l2.demand_mshr_misses::total              5432                       # number of demand (read+write) MSHR misses
system.l2.overall_mshr_misses::cpu.inst          1522                       # number of overall MSHR misses
system.l2.overall_mshr_misses::cpu.data          3910                       # number of overall MSHR misses
system.l2.overall_mshr_misses::total             5432                       # number of overall MSHR misses
system.l2.ReadReq_mshr_miss_latency::cpu.inst     96704500                       # number of ReadReq MSHR miss cycles
system.l2.ReadReq_mshr_miss_latency::cpu.data     45140000                       # number of ReadReq MSHR miss cycles
system.l2.ReadReq_mshr_miss_latency::total    141844500                       # number of ReadReq MSHR miss cycles
system.l2.ReadExReq_mshr_miss_latency::cpu.data    204120750                       # number of ReadExReq MSHR miss cycles
system.l2.ReadExReq_mshr_miss_latency::total    204120750                       # number of ReadExReq MSHR miss cycles
system.l2.demand_mshr_miss_latency::cpu.inst     96704500                       # number of demand (read+write) MSHR miss cycles
system.l2.demand_mshr_miss_latency::cpu.data    249260750                       # number of demand (read+write) MSHR miss cycles
system.l2.demand_mshr_miss_latency::total    345965250                       # number of demand (read+write) MSHR miss cycles
system.l2.overall_mshr_miss_latency::cpu.inst     96704500                       # number of overall MSHR miss cycles
system.l2.overall_mshr_miss_latency::cpu.data    249260750                       # number of overall MSHR miss cycles
system.l2.overall_mshr_miss_latency::total    345965250                       # number of overall MSHR miss cycles
system.l2.ReadReq_mshr_miss_rate::cpu.inst     0.139736                       # mshr miss rate for ReadReq accesses
system.l2.ReadReq_mshr_miss_rate::cpu.data     0.833967                       # mshr miss rate for ReadReq accesses
system.l2.ReadReq_mshr_miss_rate::total      0.186628                       # mshr miss rate for ReadReq accesses
system.l2.ReadExReq_mshr_miss_rate::cpu.data     0.989051                       # mshr miss rate for ReadExReq accesses
system.l2.ReadExReq_mshr_miss_rate::total     0.989051                       # mshr miss rate for ReadExReq accesses
system.l2.demand_mshr_miss_rate::cpu.inst     0.139736                       # mshr miss rate for demand accesses
system.l2.demand_mshr_miss_rate::cpu.data     0.959039                       # mshr miss rate for demand accesses
system.l2.demand_mshr_miss_rate::total       0.362883                       # mshr miss rate for demand accesses
system.l2.overall_mshr_miss_rate::cpu.inst     0.139736                       # mshr miss rate for overall accesses
system.l2.overall_mshr_miss_rate::cpu.data     0.959039                       # mshr miss rate for overall accesses
system.l2.overall_mshr_miss_rate::total      0.362883                       # mshr miss rate for overall accesses
system.l2.ReadReq_avg_mshr_miss_latency::cpu.inst 63537.779238                       # average ReadReq mshr miss latency
system.l2.ReadReq_avg_mshr_miss_latency::cpu.data 68601.823708                       # average ReadReq mshr miss latency
system.l2.ReadReq_avg_mshr_miss_latency::total 65066.284404                       # average ReadReq mshr miss latency
system.l2.ReadExReq_avg_mshr_miss_latency::cpu.data 62767.758303                       # average ReadExReq mshr miss latency
system.l2.ReadExReq_avg_mshr_miss_latency::total 62767.758303                       # average ReadExReq mshr miss latency
system.l2.demand_avg_mshr_miss_latency::cpu.inst 63537.779238                       # average overall mshr miss latency
system.l2.demand_avg_mshr_miss_latency::cpu.data 63749.552430                       # average overall mshr miss latency
system.l2.demand_avg_mshr_miss_latency::total 63690.215390                       # average overall mshr miss latency
system.l2.overall_avg_mshr_miss_latency::cpu.inst 63537.779238                       # average overall mshr miss latency
system.l2.overall_avg_mshr_miss_latency::cpu.data 63749.552430                       # average overall mshr miss latency
system.l2.overall_avg_mshr_miss_latency::total 63690.215390                       # average overall mshr miss latency
system.l2.no_allocate_misses                        0                       # Number of misses that were no-allocate
system.membus.trans_dist::ReadReq                2180                       # Transaction distribution
system.membus.trans_dist::ReadResp               2180                       # Transaction distribution
system.membus.trans_dist::Writeback              1522                       # Transaction distribution
system.membus.trans_dist::ReadExReq              3252                       # Transaction distribution
system.membus.trans_dist::ReadExResp             3252                       # Transaction distribution
system.membus.pkt_count_system.l2.mem_side::system.mem_ctrls.port        12386                       # Packet count per connected master and slave (bytes)
system.membus.pkt_count::total                  12386                       # Packet count per connected master and slave (bytes)
system.membus.pkt_size_system.l2.mem_side::system.mem_ctrls.port       445056                       # Cumulative packet size per connected master and slave (bytes)
system.membus.pkt_size::total                  445056                       # Cumulative packet size per connected master and slave (bytes)
system.membus.snoops                                0                       # Total snoops (count)
system.membus.snoop_fanout::samples              6954                       # Request fanout histogram
system.membus.snoop_fanout::mean                    0                       # Request fanout histogram
system.membus.snoop_fanout::stdev                   0                       # Request fanout histogram
system.membus.snoop_fanout::underflows              0      0.00%      0.00% # Request fanout histogram
system.membus.snoop_fanout::0                    6954    100.00%    100.00% # Request fanout histogram
system.membus.snoop_fanout::1                       0      0.00%    100.00% # Request fanout histogram
system.membus.snoop_fanout::overflows               0      0.00%    100.00% # Request fanout histogram
system.membus.snoop_fanout::min_value               0                       # Request fanout histogram
system.membus.snoop_fanout::max_value               0                       # Request fanout histogram
system.membus.snoop_fanout::total                6954                       # Request fanout histogram
system.membus.reqLayer0.occupancy             6521000                       # Layer occupancy (ticks)
system.membus.reqLayer0.utilization               0.2                       # Layer utilization (%)
system.membus.respLayer1.occupancy           14696750                       # Layer occupancy (ticks)
system.membus.respLayer1.utilization              0.4                       # Layer utilization (%)
system.tol2bus.trans_dist::ReadReq              11681                       # Transaction distribution
system.tol2bus.trans_dist::ReadResp             11681                       # Transaction distribution
system.tol2bus.trans_dist::Writeback             3251                       # Transaction distribution
system.tol2bus.trans_dist::ReadExReq             3288                       # Transaction distribution
system.tol2bus.trans_dist::ReadExResp            3288                       # Transaction distribution
system.tol2bus.pkt_count_system.cpu.icache.mem_side::system.l2.cpu_side        21784                       # Packet count per connected master and slave (bytes)
system.tol2bus.pkt_count_system.cpu.dcache.mem_side::system.l2.cpu_side        11405                       # Packet count per connected master and slave (bytes)
system.tol2bus.pkt_count::total                 33189                       # Packet count per connected master and slave (bytes)
system.tol2bus.pkt_size_system.cpu.icache.mem_side::system.l2.cpu_side       697088                       # Cumulative packet size per connected master and slave (bytes)
system.tol2bus.pkt_size_system.cpu.dcache.mem_side::system.l2.cpu_side       468992                       # Cumulative packet size per connected master and slave (bytes)
system.tol2bus.pkt_size::total                1166080                       # Cumulative packet size per connected master and slave (bytes)
system.tol2bus.snoops                               0                       # Total snoops (count)
system.tol2bus.snoop_fanout::samples            18220                       # Request fanout histogram
system.tol2bus.snoop_fanout::mean                   1                       # Request fanout histogram
system.tol2bus.snoop_fanout::stdev                  0                       # Request fanout histogram
system.tol2bus.snoop_fanout::underflows             0      0.00%      0.00% # Request fanout histogram
system.tol2bus.snoop_fanout::0                      0      0.00%      0.00% # Request fanout histogram
system.tol2bus.snoop_fanout::1                  18220    100.00%    100.00% # Request fanout histogram
system.tol2bus.snoop_fanout::2                      0      0.00%    100.00% # Request fanout histogram
system.tol2bus.snoop_fanout::overflows              0      0.00%    100.00% # Request fanout histogram
system.tol2bus.snoop_fanout::min_value              1                       # Request fanout histogram
system.tol2bus.snoop_fanout::max_value              1                       # Request fanout histogram
system.tol2bus.snoop_fanout::total              18220                       # Request fanout histogram
system.tol2bus.reqLayer0.occupancy           12361000                       # Layer occupancy (ticks)
system.tol2bus.reqLayer0.utilization              0.3                       # Layer utilization (%)
system.tol2bus.respLayer0.occupancy          16673245                       # Layer occupancy (ticks)
system.tol2bus.respLayer0.utilization             0.4                       # Layer utilization (%)
system.tol2bus.respLayer1.occupancy           6897750                       # Layer occupancy (ticks)
system.tol2bus.respLayer1.utilization             0.2                       # Layer utilization (%)

---------- End Simulation Statistics   ----------
