
---------- Begin Simulation Statistics ----------
sim_seconds                                  0.002849                       # Number of seconds simulated
sim_ticks                                  2848728000                       # Number of ticks simulated
final_tick                                 2848728000                       # Number of ticks from beginning of simulation (restored from checkpoints and never reset)
sim_freq                                 1000000000000                       # Frequency of simulated ticks
host_inst_rate                                 243187                       # Simulator instruction rate (inst/s)
host_op_rate                                   287330                       # Simulator op (including micro ops) rate (op/s)
host_tick_rate                               69277383                       # Simulator tick rate (ticks/s)
host_mem_usage                                 655588                       # Number of bytes of host memory used
host_seconds                                    41.12                       # Real time elapsed on the host
sim_insts                                    10000004                       # Number of instructions simulated
sim_ops                                      11815191                       # Number of ops (including micro ops) simulated
system.voltage_domain.voltage                       1                       # Voltage in Volts
system.clk_domain.clock                           500                       # Clock period in ticks
system.mem_ctrls.bytes_read::cpu.inst           45184                       # Number of bytes read from this memory
system.mem_ctrls.bytes_read::cpu.data           26624                       # Number of bytes read from this memory
system.mem_ctrls.bytes_read::total              71808                       # Number of bytes read from this memory
system.mem_ctrls.bytes_inst_read::cpu.inst        45184                       # Number of instructions bytes read from this memory
system.mem_ctrls.bytes_inst_read::total         45184                       # Number of instructions bytes read from this memory
system.mem_ctrls.bytes_written::writebacks         8000                       # Number of bytes written to this memory
system.mem_ctrls.bytes_written::total            8000                       # Number of bytes written to this memory
system.mem_ctrls.num_reads::cpu.inst              706                       # Number of read requests responded to by this memory
system.mem_ctrls.num_reads::cpu.data              416                       # Number of read requests responded to by this memory
system.mem_ctrls.num_reads::total                1122                       # Number of read requests responded to by this memory
system.mem_ctrls.num_writes::writebacks           125                       # Number of write requests responded to by this memory
system.mem_ctrls.num_writes::total                125                       # Number of write requests responded to by this memory
system.mem_ctrls.bw_read::cpu.inst           15861114                       # Total read bandwidth from this memory (bytes/s)
system.mem_ctrls.bw_read::cpu.data            9345926                       # Total read bandwidth from this memory (bytes/s)
system.mem_ctrls.bw_read::total              25207040                       # Total read bandwidth from this memory (bytes/s)
system.mem_ctrls.bw_inst_read::cpu.inst      15861114                       # Instruction read bandwidth from this memory (bytes/s)
system.mem_ctrls.bw_inst_read::total         15861114                       # Instruction read bandwidth from this memory (bytes/s)
system.mem_ctrls.bw_write::writebacks         2808271                       # Write bandwidth from this memory (bytes/s)
system.mem_ctrls.bw_write::total              2808271                       # Write bandwidth from this memory (bytes/s)
system.mem_ctrls.bw_total::writebacks         2808271                       # Total bandwidth to/from this memory (bytes/s)
system.mem_ctrls.bw_total::cpu.inst          15861114                       # Total bandwidth to/from this memory (bytes/s)
system.mem_ctrls.bw_total::cpu.data           9345926                       # Total bandwidth to/from this memory (bytes/s)
system.mem_ctrls.bw_total::total             28015311                       # Total bandwidth to/from this memory (bytes/s)
system.mem_ctrls.readReqs                        1122                       # Number of read requests accepted
system.mem_ctrls.writeReqs                        125                       # Number of write requests accepted
system.mem_ctrls.readBursts                      1122                       # Number of DRAM read bursts, including those serviced by the write queue
system.mem_ctrls.writeBursts                      125                       # Number of DRAM write bursts, including those merged in the write queue
system.mem_ctrls.bytesReadDRAM                  69696                       # Total number of bytes read from DRAM
system.mem_ctrls.bytesReadWrQ                    2112                       # Total number of bytes read from write queue
system.mem_ctrls.bytesWritten                    5632                       # Total number of bytes written to DRAM
system.mem_ctrls.bytesReadSys                   71808                       # Total read bytes from the system interface side
system.mem_ctrls.bytesWrittenSys                 8000                       # Total written bytes from the system interface side
system.mem_ctrls.servicedByWrQ                     33                       # Number of DRAM read bursts serviced by the write queue
system.mem_ctrls.mergedWrBursts                    10                       # Number of DRAM write bursts merged with an existing one
system.mem_ctrls.neitherReadNorWriteReqs            0                       # Number of requests that are neither read nor write
system.mem_ctrls.perBankRdBursts::0               119                       # Per bank write bursts
system.mem_ctrls.perBankRdBursts::1                88                       # Per bank write bursts
system.mem_ctrls.perBankRdBursts::2                18                       # Per bank write bursts
system.mem_ctrls.perBankRdBursts::3                77                       # Per bank write bursts
system.mem_ctrls.perBankRdBursts::4               169                       # Per bank write bursts
system.mem_ctrls.perBankRdBursts::5                49                       # Per bank write bursts
system.mem_ctrls.perBankRdBursts::6                68                       # Per bank write bursts
system.mem_ctrls.perBankRdBursts::7                49                       # Per bank write bursts
system.mem_ctrls.perBankRdBursts::8                48                       # Per bank write bursts
system.mem_ctrls.perBankRdBursts::9                68                       # Per bank write bursts
system.mem_ctrls.perBankRdBursts::10               80                       # Per bank write bursts
system.mem_ctrls.perBankRdBursts::11               19                       # Per bank write bursts
system.mem_ctrls.perBankRdBursts::12               61                       # Per bank write bursts
system.mem_ctrls.perBankRdBursts::13               42                       # Per bank write bursts
system.mem_ctrls.perBankRdBursts::14               29                       # Per bank write bursts
system.mem_ctrls.perBankRdBursts::15              105                       # Per bank write bursts
system.mem_ctrls.perBankWrBursts::0                18                       # Per bank write bursts
system.mem_ctrls.perBankWrBursts::1                 6                       # Per bank write bursts
system.mem_ctrls.perBankWrBursts::2                 7                       # Per bank write bursts
system.mem_ctrls.perBankWrBursts::3                11                       # Per bank write bursts
system.mem_ctrls.perBankWrBursts::4                 2                       # Per bank write bursts
system.mem_ctrls.perBankWrBursts::5                 0                       # Per bank write bursts
system.mem_ctrls.perBankWrBursts::6                 0                       # Per bank write bursts
system.mem_ctrls.perBankWrBursts::7                 0                       # Per bank write bursts
system.mem_ctrls.perBankWrBursts::8                 0                       # Per bank write bursts
system.mem_ctrls.perBankWrBursts::9                 0                       # Per bank write bursts
system.mem_ctrls.perBankWrBursts::10                0                       # Per bank write bursts
system.mem_ctrls.perBankWrBursts::11                0                       # Per bank write bursts
system.mem_ctrls.perBankWrBursts::12                0                       # Per bank write bursts
system.mem_ctrls.perBankWrBursts::13                0                       # Per bank write bursts
system.mem_ctrls.perBankWrBursts::14                2                       # Per bank write bursts
system.mem_ctrls.perBankWrBursts::15               42                       # Per bank write bursts
system.mem_ctrls.numRdRetry                         0                       # Number of times read queue was full causing retry
system.mem_ctrls.numWrRetry                         0                       # Number of times write queue was full causing retry
system.mem_ctrls.totGap                    2833509500                       # Total gap between requests
system.mem_ctrls.readPktSize::0                     0                       # Read request sizes (log2)
system.mem_ctrls.readPktSize::1                     0                       # Read request sizes (log2)
system.mem_ctrls.readPktSize::2                     0                       # Read request sizes (log2)
system.mem_ctrls.readPktSize::3                     0                       # Read request sizes (log2)
system.mem_ctrls.readPktSize::4                     0                       # Read request sizes (log2)
system.mem_ctrls.readPktSize::5                     0                       # Read request sizes (log2)
system.mem_ctrls.readPktSize::6                  1122                       # Read request sizes (log2)
system.mem_ctrls.writePktSize::0                    0                       # Write request sizes (log2)
system.mem_ctrls.writePktSize::1                    0                       # Write request sizes (log2)
system.mem_ctrls.writePktSize::2                    0                       # Write request sizes (log2)
system.mem_ctrls.writePktSize::3                    0                       # Write request sizes (log2)
system.mem_ctrls.writePktSize::4                    0                       # Write request sizes (log2)
system.mem_ctrls.writePktSize::5                    0                       # Write request sizes (log2)
system.mem_ctrls.writePktSize::6                  125                       # Write request sizes (log2)
system.mem_ctrls.rdQLenPdf::0                     627                       # What read queue length does an incoming req see
system.mem_ctrls.rdQLenPdf::1                     305                       # What read queue length does an incoming req see
system.mem_ctrls.rdQLenPdf::2                     111                       # What read queue length does an incoming req see
system.mem_ctrls.rdQLenPdf::3                      38                       # What read queue length does an incoming req see
system.mem_ctrls.rdQLenPdf::4                       8                       # What read queue length does an incoming req see
system.mem_ctrls.rdQLenPdf::5                       0                       # What read queue length does an incoming req see
system.mem_ctrls.rdQLenPdf::6                       0                       # What read queue length does an incoming req see
system.mem_ctrls.rdQLenPdf::7                       0                       # What read queue length does an incoming req see
system.mem_ctrls.rdQLenPdf::8                       0                       # What read queue length does an incoming req see
system.mem_ctrls.rdQLenPdf::9                       0                       # What read queue length does an incoming req see
system.mem_ctrls.rdQLenPdf::10                      0                       # What read queue length does an incoming req see
system.mem_ctrls.rdQLenPdf::11                      0                       # What read queue length does an incoming req see
system.mem_ctrls.rdQLenPdf::12                      0                       # What read queue length does an incoming req see
system.mem_ctrls.rdQLenPdf::13                      0                       # What read queue length does an incoming req see
system.mem_ctrls.rdQLenPdf::14                      0                       # What read queue length does an incoming req see
system.mem_ctrls.rdQLenPdf::15                      0                       # What read queue length does an incoming req see
system.mem_ctrls.rdQLenPdf::16                      0                       # What read queue length does an incoming req see
system.mem_ctrls.rdQLenPdf::17                      0                       # What read queue length does an incoming req see
system.mem_ctrls.rdQLenPdf::18                      0                       # What read queue length does an incoming req see
system.mem_ctrls.rdQLenPdf::19                      0                       # What read queue length does an incoming req see
system.mem_ctrls.rdQLenPdf::20                      0                       # What read queue length does an incoming req see
system.mem_ctrls.rdQLenPdf::21                      0                       # What read queue length does an incoming req see
system.mem_ctrls.rdQLenPdf::22                      0                       # What read queue length does an incoming req see
system.mem_ctrls.rdQLenPdf::23                      0                       # What read queue length does an incoming req see
system.mem_ctrls.rdQLenPdf::24                      0                       # What read queue length does an incoming req see
system.mem_ctrls.rdQLenPdf::25                      0                       # What read queue length does an incoming req see
system.mem_ctrls.rdQLenPdf::26                      0                       # What read queue length does an incoming req see
system.mem_ctrls.rdQLenPdf::27                      0                       # What read queue length does an incoming req see
system.mem_ctrls.rdQLenPdf::28                      0                       # What read queue length does an incoming req see
system.mem_ctrls.rdQLenPdf::29                      0                       # What read queue length does an incoming req see
system.mem_ctrls.rdQLenPdf::30                      0                       # What read queue length does an incoming req see
system.mem_ctrls.rdQLenPdf::31                      0                       # What read queue length does an incoming req see
system.mem_ctrls.wrQLenPdf::0                       1                       # What write queue length does an incoming req see
system.mem_ctrls.wrQLenPdf::1                       1                       # What write queue length does an incoming req see
system.mem_ctrls.wrQLenPdf::2                       1                       # What write queue length does an incoming req see
system.mem_ctrls.wrQLenPdf::3                       1                       # What write queue length does an incoming req see
system.mem_ctrls.wrQLenPdf::4                       1                       # What write queue length does an incoming req see
system.mem_ctrls.wrQLenPdf::5                       1                       # What write queue length does an incoming req see
system.mem_ctrls.wrQLenPdf::6                       1                       # What write queue length does an incoming req see
system.mem_ctrls.wrQLenPdf::7                       1                       # What write queue length does an incoming req see
system.mem_ctrls.wrQLenPdf::8                       1                       # What write queue length does an incoming req see
system.mem_ctrls.wrQLenPdf::9                       1                       # What write queue length does an incoming req see
system.mem_ctrls.wrQLenPdf::10                      1                       # What write queue length does an incoming req see
system.mem_ctrls.wrQLenPdf::11                      1                       # What write queue length does an incoming req see
system.mem_ctrls.wrQLenPdf::12                      1                       # What write queue length does an incoming req see
system.mem_ctrls.wrQLenPdf::13                      1                       # What write queue length does an incoming req see
system.mem_ctrls.wrQLenPdf::14                      1                       # What write queue length does an incoming req see
system.mem_ctrls.wrQLenPdf::15                      5                       # What write queue length does an incoming req see
system.mem_ctrls.wrQLenPdf::16                      5                       # What write queue length does an incoming req see
system.mem_ctrls.wrQLenPdf::17                      6                       # What write queue length does an incoming req see
system.mem_ctrls.wrQLenPdf::18                      6                       # What write queue length does an incoming req see
system.mem_ctrls.wrQLenPdf::19                      6                       # What write queue length does an incoming req see
system.mem_ctrls.wrQLenPdf::20                      6                       # What write queue length does an incoming req see
system.mem_ctrls.wrQLenPdf::21                      6                       # What write queue length does an incoming req see
system.mem_ctrls.wrQLenPdf::22                      6                       # What write queue length does an incoming req see
system.mem_ctrls.wrQLenPdf::23                      6                       # What write queue length does an incoming req see
system.mem_ctrls.wrQLenPdf::24                      6                       # What write queue length does an incoming req see
system.mem_ctrls.wrQLenPdf::25                      6                       # What write queue length does an incoming req see
system.mem_ctrls.wrQLenPdf::26                      6                       # What write queue length does an incoming req see
system.mem_ctrls.wrQLenPdf::27                      5                       # What write queue length does an incoming req see
system.mem_ctrls.wrQLenPdf::28                      5                       # What write queue length does an incoming req see
system.mem_ctrls.wrQLenPdf::29                      5                       # What write queue length does an incoming req see
system.mem_ctrls.wrQLenPdf::30                      5                       # What write queue length does an incoming req see
system.mem_ctrls.wrQLenPdf::31                      5                       # What write queue length does an incoming req see
system.mem_ctrls.wrQLenPdf::32                      5                       # What write queue length does an incoming req see
system.mem_ctrls.wrQLenPdf::33                      0                       # What write queue length does an incoming req see
system.mem_ctrls.wrQLenPdf::34                      0                       # What write queue length does an incoming req see
system.mem_ctrls.wrQLenPdf::35                      0                       # What write queue length does an incoming req see
system.mem_ctrls.wrQLenPdf::36                      0                       # What write queue length does an incoming req see
system.mem_ctrls.wrQLenPdf::37                      0                       # What write queue length does an incoming req see
system.mem_ctrls.wrQLenPdf::38                      0                       # What write queue length does an incoming req see
system.mem_ctrls.wrQLenPdf::39                      0                       # What write queue length does an incoming req see
system.mem_ctrls.wrQLenPdf::40                      0                       # What write queue length does an incoming req see
system.mem_ctrls.wrQLenPdf::41                      0                       # What write queue length does an incoming req see
system.mem_ctrls.wrQLenPdf::42                      0                       # What write queue length does an incoming req see
system.mem_ctrls.wrQLenPdf::43                      0                       # What write queue length does an incoming req see
system.mem_ctrls.wrQLenPdf::44                      0                       # What write queue length does an incoming req see
system.mem_ctrls.wrQLenPdf::45                      0                       # What write queue length does an incoming req see
system.mem_ctrls.wrQLenPdf::46                      0                       # What write queue length does an incoming req see
system.mem_ctrls.wrQLenPdf::47                      0                       # What write queue length does an incoming req see
system.mem_ctrls.wrQLenPdf::48                      0                       # What write queue length does an incoming req see
system.mem_ctrls.wrQLenPdf::49                      0                       # What write queue length does an incoming req see
system.mem_ctrls.wrQLenPdf::50                      0                       # What write queue length does an incoming req see
system.mem_ctrls.wrQLenPdf::51                      0                       # What write queue length does an incoming req see
system.mem_ctrls.wrQLenPdf::52                      0                       # What write queue length does an incoming req see
system.mem_ctrls.wrQLenPdf::53                      0                       # What write queue length does an incoming req see
system.mem_ctrls.wrQLenPdf::54                      0                       # What write queue length does an incoming req see
system.mem_ctrls.wrQLenPdf::55                      0                       # What write queue length does an incoming req see
system.mem_ctrls.wrQLenPdf::56                      0                       # What write queue length does an incoming req see
system.mem_ctrls.wrQLenPdf::57                      0                       # What write queue length does an incoming req see
system.mem_ctrls.wrQLenPdf::58                      0                       # What write queue length does an incoming req see
system.mem_ctrls.wrQLenPdf::59                      0                       # What write queue length does an incoming req see
system.mem_ctrls.wrQLenPdf::60                      0                       # What write queue length does an incoming req see
system.mem_ctrls.wrQLenPdf::61                      0                       # What write queue length does an incoming req see
system.mem_ctrls.wrQLenPdf::62                      0                       # What write queue length does an incoming req see
system.mem_ctrls.wrQLenPdf::63                      0                       # What write queue length does an incoming req see
system.mem_ctrls.bytesPerActivate::samples          364                       # Bytes accessed per row activation
system.mem_ctrls.bytesPerActivate::mean    206.945055                       # Bytes accessed per row activation
system.mem_ctrls.bytesPerActivate::gmean   121.521048                       # Bytes accessed per row activation
system.mem_ctrls.bytesPerActivate::stdev   264.437294                       # Bytes accessed per row activation
system.mem_ctrls.bytesPerActivate::0-127          222     60.99%     60.99% # Bytes accessed per row activation
system.mem_ctrls.bytesPerActivate::128-255           49     13.46%     74.45% # Bytes accessed per row activation
system.mem_ctrls.bytesPerActivate::256-383           32      8.79%     83.24% # Bytes accessed per row activation
system.mem_ctrls.bytesPerActivate::384-511           12      3.30%     86.54% # Bytes accessed per row activation
system.mem_ctrls.bytesPerActivate::512-639           11      3.02%     89.56% # Bytes accessed per row activation
system.mem_ctrls.bytesPerActivate::640-767            7      1.92%     91.48% # Bytes accessed per row activation
system.mem_ctrls.bytesPerActivate::768-895            8      2.20%     93.68% # Bytes accessed per row activation
system.mem_ctrls.bytesPerActivate::896-1023            5      1.37%     95.05% # Bytes accessed per row activation
system.mem_ctrls.bytesPerActivate::1024-1151           18      4.95%    100.00% # Bytes accessed per row activation
system.mem_ctrls.bytesPerActivate::total          364                       # Bytes accessed per row activation
system.mem_ctrls.rdPerTurnAround::samples            5                       # Reads before turning the bus around for writes
system.mem_ctrls.rdPerTurnAround::mean     215.400000                       # Reads before turning the bus around for writes
system.mem_ctrls.rdPerTurnAround::gmean    105.348355                       # Reads before turning the bus around for writes
system.mem_ctrls.rdPerTurnAround::stdev    269.070251                       # Reads before turning the bus around for writes
system.mem_ctrls.rdPerTurnAround::0-31              1     20.00%     20.00% # Reads before turning the bus around for writes
system.mem_ctrls.rdPerTurnAround::32-63             1     20.00%     40.00% # Reads before turning the bus around for writes
system.mem_ctrls.rdPerTurnAround::64-95             1     20.00%     60.00% # Reads before turning the bus around for writes
system.mem_ctrls.rdPerTurnAround::256-287            1     20.00%     80.00% # Reads before turning the bus around for writes
system.mem_ctrls.rdPerTurnAround::640-671            1     20.00%    100.00% # Reads before turning the bus around for writes
system.mem_ctrls.rdPerTurnAround::total             5                       # Reads before turning the bus around for writes
system.mem_ctrls.wrPerTurnAround::samples            5                       # Writes before turning the bus around for reads
system.mem_ctrls.wrPerTurnAround::mean      17.600000                       # Writes before turning the bus around for reads
system.mem_ctrls.wrPerTurnAround::gmean     17.580936                       # Writes before turning the bus around for reads
system.mem_ctrls.wrPerTurnAround::stdev      0.894427                       # Writes before turning the bus around for reads
system.mem_ctrls.wrPerTurnAround::16                1     20.00%     20.00% # Writes before turning the bus around for reads
system.mem_ctrls.wrPerTurnAround::18                4     80.00%    100.00% # Writes before turning the bus around for reads
system.mem_ctrls.wrPerTurnAround::total             5                       # Writes before turning the bus around for reads
system.mem_ctrls.totQLat                     12271500                       # Total ticks spent queuing
system.mem_ctrls.totMemAccLat                32690250                       # Total ticks spent from burst creation until serviced by the DRAM
system.mem_ctrls.totBusLat                    5445000                       # Total ticks spent in databus transfers
system.mem_ctrls.avgQLat                     11268.60                       # Average queueing delay per DRAM burst
system.mem_ctrls.avgBusLat                    5000.00                       # Average bus latency per DRAM burst
system.mem_ctrls.avgMemAccLat                30018.60                       # Average memory access latency per DRAM burst
system.mem_ctrls.avgRdBW                        24.47                       # Average DRAM read bandwidth in MiByte/s
system.mem_ctrls.avgWrBW                         1.98                       # Average achieved write bandwidth in MiByte/s
system.mem_ctrls.avgRdBWSys                     25.21                       # Average system read bandwidth in MiByte/s
system.mem_ctrls.avgWrBWSys                      2.81                       # Average system write bandwidth in MiByte/s
system.mem_ctrls.peakBW                      12800.00                       # Theoretical peak bandwidth in MiByte/s
system.mem_ctrls.busUtil                         0.21                       # Data bus utilization in percentage
system.mem_ctrls.busUtilRead                     0.19                       # Data bus utilization in percentage for reads
system.mem_ctrls.busUtilWrite                    0.02                       # Data bus utilization in percentage for writes
system.mem_ctrls.avgRdQLen                       1.01                       # Average read queue length when enqueuing
system.mem_ctrls.avgWrQLen                      24.73                       # Average write queue length when enqueuing
system.mem_ctrls.readRowHits                      744                       # Number of row buffer hits during reads
system.mem_ctrls.writeRowHits                      69                       # Number of row buffer hits during writes
system.mem_ctrls.readRowHitRate                 68.32                       # Row buffer hit rate for reads
system.mem_ctrls.writeRowHitRate                60.00                       # Row buffer hit rate for writes
system.mem_ctrls.avgGap                    2272261.03                       # Average gap between requests
system.mem_ctrls.pageHitRate                    67.52                       # Row buffer hit rate, read and write combined
system.mem_ctrls_0.actEnergy                  2109240                       # Energy for activate commands per rank (pJ)
system.mem_ctrls_0.preEnergy                  1150875                       # Energy for precharge commands per rank (pJ)
system.mem_ctrls_0.readEnergy                 4968600                       # Energy for read commands per rank (pJ)
system.mem_ctrls_0.writeEnergy                 285120                       # Energy for write commands per rank (pJ)
system.mem_ctrls_0.refreshEnergy            185624400                       # Energy for refresh commands per rank (pJ)
system.mem_ctrls_0.actBackEnergy            482538915                       # Energy for active background per rank (pJ)
system.mem_ctrls_0.preBackEnergy           1282056750                       # Energy for precharge background per rank (pJ)
system.mem_ctrls_0.totalEnergy             1958733900                       # Total energy per rank (pJ)
system.mem_ctrls_0.averagePower            689.154510                       # Core power per rank (mW)
system.mem_ctrls_0.memoryStateTime::IDLE   2129577250                       # Time in different power states
system.mem_ctrls_0.memoryStateTime::REF      94900000                       # Time in different power states
system.mem_ctrls_0.memoryStateTime::PRE_PDN            0                       # Time in different power states
system.mem_ctrls_0.memoryStateTime::ACT     617764000                       # Time in different power states
system.mem_ctrls_0.memoryStateTime::ACT_PDN            0                       # Time in different power states
system.mem_ctrls_1.actEnergy                   642600                       # Energy for activate commands per rank (pJ)
system.mem_ctrls_1.preEnergy                   350625                       # Energy for precharge commands per rank (pJ)
system.mem_ctrls_1.readEnergy                 3525600                       # Energy for read commands per rank (pJ)
system.mem_ctrls_1.writeEnergy                 285120                       # Energy for write commands per rank (pJ)
system.mem_ctrls_1.refreshEnergy            185624400                       # Energy for refresh commands per rank (pJ)
system.mem_ctrls_1.actBackEnergy             84936555                       # Energy for active background per rank (pJ)
system.mem_ctrls_1.preBackEnergy           1630830750                       # Energy for precharge background per rank (pJ)
system.mem_ctrls_1.totalEnergy             1906195650                       # Total energy per rank (pJ)
system.mem_ctrls_1.averagePower            670.669624                       # Core power per rank (mW)
system.mem_ctrls_1.memoryStateTime::IDLE   2712935000                       # Time in different power states
system.mem_ctrls_1.memoryStateTime::REF      94900000                       # Time in different power states
system.mem_ctrls_1.memoryStateTime::PRE_PDN            0                       # Time in different power states
system.mem_ctrls_1.memoryStateTime::ACT      34406250                       # Time in different power states
system.mem_ctrls_1.memoryStateTime::ACT_PDN            0                       # Time in different power states
system.cpu.branchPred.lookups                 2552150                       # Number of BP lookups
system.cpu.branchPred.condPredicted           1806355                       # Number of conditional branches predicted
system.cpu.branchPred.condIncorrect             76900                       # Number of conditional branches incorrect
system.cpu.branchPred.BTBLookups              1086563                       # Number of BTB lookups
system.cpu.branchPred.BTBHits                 1082964                       # Number of BTB hits
system.cpu.branchPred.BTBCorrect                    0                       # Number of correct BTB predictions (this stat may not work properly.
system.cpu.branchPred.BTBHitPct             99.668772                       # BTB Hit Percentage
system.cpu.branchPred.usedRAS                  414413                       # Number of times the RAS was used to get a target.
system.cpu.branchPred.RASInCorrect              14205                       # Number of incorrect RAS predictions.
system.cpu_voltage_domain.voltage                   1                       # Voltage in Volts
system.cpu_clk_domain.clock                       500                       # Clock period in ticks
system.cpu.dstage2_mmu.stage2_tlb.walker.walks            0                       # Table walker walks requested
system.cpu.dstage2_mmu.stage2_tlb.walker.walkRequestOrigin_Requested::Data            0                       # Table walker requests started/completed, data/inst
system.cpu.dstage2_mmu.stage2_tlb.walker.walkRequestOrigin_Requested::Inst            0                       # Table walker requests started/completed, data/inst
system.cpu.dstage2_mmu.stage2_tlb.walker.walkRequestOrigin_Requested::total            0                       # Table walker requests started/completed, data/inst
system.cpu.dstage2_mmu.stage2_tlb.walker.walkRequestOrigin_Completed::Data            0                       # Table walker requests started/completed, data/inst
system.cpu.dstage2_mmu.stage2_tlb.walker.walkRequestOrigin_Completed::Inst            0                       # Table walker requests started/completed, data/inst
system.cpu.dstage2_mmu.stage2_tlb.walker.walkRequestOrigin_Completed::total            0                       # Table walker requests started/completed, data/inst
system.cpu.dstage2_mmu.stage2_tlb.walker.walkRequestOrigin::total            0                       # Table walker requests started/completed, data/inst
system.cpu.dstage2_mmu.stage2_tlb.inst_hits            0                       # ITB inst hits
system.cpu.dstage2_mmu.stage2_tlb.inst_misses            0                       # ITB inst misses
system.cpu.dstage2_mmu.stage2_tlb.read_hits            0                       # DTB read hits
system.cpu.dstage2_mmu.stage2_tlb.read_misses            0                       # DTB read misses
system.cpu.dstage2_mmu.stage2_tlb.write_hits            0                       # DTB write hits
system.cpu.dstage2_mmu.stage2_tlb.write_misses            0                       # DTB write misses
system.cpu.dstage2_mmu.stage2_tlb.flush_tlb            0                       # Number of times complete TLB was flushed
system.cpu.dstage2_mmu.stage2_tlb.flush_tlb_mva            0                       # Number of times TLB was flushed by MVA
system.cpu.dstage2_mmu.stage2_tlb.flush_tlb_mva_asid            0                       # Number of times TLB was flushed by MVA & ASID
system.cpu.dstage2_mmu.stage2_tlb.flush_tlb_asid            0                       # Number of times TLB was flushed by ASID
system.cpu.dstage2_mmu.stage2_tlb.flush_entries            0                       # Number of entries that have been flushed from TLB
system.cpu.dstage2_mmu.stage2_tlb.align_faults            0                       # Number of TLB faults due to alignment restrictions
system.cpu.dstage2_mmu.stage2_tlb.prefetch_faults            0                       # Number of TLB faults due to prefetch
system.cpu.dstage2_mmu.stage2_tlb.domain_faults            0                       # Number of TLB faults due to domain restrictions
system.cpu.dstage2_mmu.stage2_tlb.perms_faults            0                       # Number of TLB faults due to permissions restrictions
system.cpu.dstage2_mmu.stage2_tlb.read_accesses            0                       # DTB read accesses
system.cpu.dstage2_mmu.stage2_tlb.write_accesses            0                       # DTB write accesses
system.cpu.dstage2_mmu.stage2_tlb.inst_accesses            0                       # ITB inst accesses
system.cpu.dstage2_mmu.stage2_tlb.hits              0                       # DTB hits
system.cpu.dstage2_mmu.stage2_tlb.misses            0                       # DTB misses
system.cpu.dstage2_mmu.stage2_tlb.accesses            0                       # DTB accesses
system.cpu.dtb.walker.walks                         0                       # Table walker walks requested
system.cpu.dtb.walker.walkRequestOrigin_Requested::Data            0                       # Table walker requests started/completed, data/inst
system.cpu.dtb.walker.walkRequestOrigin_Requested::Inst            0                       # Table walker requests started/completed, data/inst
system.cpu.dtb.walker.walkRequestOrigin_Requested::total            0                       # Table walker requests started/completed, data/inst
system.cpu.dtb.walker.walkRequestOrigin_Completed::Data            0                       # Table walker requests started/completed, data/inst
system.cpu.dtb.walker.walkRequestOrigin_Completed::Inst            0                       # Table walker requests started/completed, data/inst
system.cpu.dtb.walker.walkRequestOrigin_Completed::total            0                       # Table walker requests started/completed, data/inst
system.cpu.dtb.walker.walkRequestOrigin::total            0                       # Table walker requests started/completed, data/inst
system.cpu.dtb.inst_hits                            0                       # ITB inst hits
system.cpu.dtb.inst_misses                          0                       # ITB inst misses
system.cpu.dtb.read_hits                            0                       # DTB read hits
system.cpu.dtb.read_misses                          0                       # DTB read misses
system.cpu.dtb.write_hits                           0                       # DTB write hits
system.cpu.dtb.write_misses                         0                       # DTB write misses
system.cpu.dtb.flush_tlb                            0                       # Number of times complete TLB was flushed
system.cpu.dtb.flush_tlb_mva                        0                       # Number of times TLB was flushed by MVA
system.cpu.dtb.flush_tlb_mva_asid                   0                       # Number of times TLB was flushed by MVA & ASID
system.cpu.dtb.flush_tlb_asid                       0                       # Number of times TLB was flushed by ASID
system.cpu.dtb.flush_entries                        0                       # Number of entries that have been flushed from TLB
system.cpu.dtb.align_faults                         0                       # Number of TLB faults due to alignment restrictions
system.cpu.dtb.prefetch_faults                      0                       # Number of TLB faults due to prefetch
system.cpu.dtb.domain_faults                        0                       # Number of TLB faults due to domain restrictions
system.cpu.dtb.perms_faults                         0                       # Number of TLB faults due to permissions restrictions
system.cpu.dtb.read_accesses                        0                       # DTB read accesses
system.cpu.dtb.write_accesses                       0                       # DTB write accesses
system.cpu.dtb.inst_accesses                        0                       # ITB inst accesses
system.cpu.dtb.hits                                 0                       # DTB hits
system.cpu.dtb.misses                               0                       # DTB misses
system.cpu.dtb.accesses                             0                       # DTB accesses
system.cpu.istage2_mmu.stage2_tlb.walker.walks            0                       # Table walker walks requested
system.cpu.istage2_mmu.stage2_tlb.walker.walkRequestOrigin_Requested::Data            0                       # Table walker requests started/completed, data/inst
system.cpu.istage2_mmu.stage2_tlb.walker.walkRequestOrigin_Requested::Inst            0                       # Table walker requests started/completed, data/inst
system.cpu.istage2_mmu.stage2_tlb.walker.walkRequestOrigin_Requested::total            0                       # Table walker requests started/completed, data/inst
system.cpu.istage2_mmu.stage2_tlb.walker.walkRequestOrigin_Completed::Data            0                       # Table walker requests started/completed, data/inst
system.cpu.istage2_mmu.stage2_tlb.walker.walkRequestOrigin_Completed::Inst            0                       # Table walker requests started/completed, data/inst
system.cpu.istage2_mmu.stage2_tlb.walker.walkRequestOrigin_Completed::total            0                       # Table walker requests started/completed, data/inst
system.cpu.istage2_mmu.stage2_tlb.walker.walkRequestOrigin::total            0                       # Table walker requests started/completed, data/inst
system.cpu.istage2_mmu.stage2_tlb.inst_hits            0                       # ITB inst hits
system.cpu.istage2_mmu.stage2_tlb.inst_misses            0                       # ITB inst misses
system.cpu.istage2_mmu.stage2_tlb.read_hits            0                       # DTB read hits
system.cpu.istage2_mmu.stage2_tlb.read_misses            0                       # DTB read misses
system.cpu.istage2_mmu.stage2_tlb.write_hits            0                       # DTB write hits
system.cpu.istage2_mmu.stage2_tlb.write_misses            0                       # DTB write misses
system.cpu.istage2_mmu.stage2_tlb.flush_tlb            0                       # Number of times complete TLB was flushed
system.cpu.istage2_mmu.stage2_tlb.flush_tlb_mva            0                       # Number of times TLB was flushed by MVA
system.cpu.istage2_mmu.stage2_tlb.flush_tlb_mva_asid            0                       # Number of times TLB was flushed by MVA & ASID
system.cpu.istage2_mmu.stage2_tlb.flush_tlb_asid            0                       # Number of times TLB was flushed by ASID
system.cpu.istage2_mmu.stage2_tlb.flush_entries            0                       # Number of entries that have been flushed from TLB
system.cpu.istage2_mmu.stage2_tlb.align_faults            0                       # Number of TLB faults due to alignment restrictions
system.cpu.istage2_mmu.stage2_tlb.prefetch_faults            0                       # Number of TLB faults due to prefetch
system.cpu.istage2_mmu.stage2_tlb.domain_faults            0                       # Number of TLB faults due to domain restrictions
system.cpu.istage2_mmu.stage2_tlb.perms_faults            0                       # Number of TLB faults due to permissions restrictions
system.cpu.istage2_mmu.stage2_tlb.read_accesses            0                       # DTB read accesses
system.cpu.istage2_mmu.stage2_tlb.write_accesses            0                       # DTB write accesses
system.cpu.istage2_mmu.stage2_tlb.inst_accesses            0                       # ITB inst accesses
system.cpu.istage2_mmu.stage2_tlb.hits              0                       # DTB hits
system.cpu.istage2_mmu.stage2_tlb.misses            0                       # DTB misses
system.cpu.istage2_mmu.stage2_tlb.accesses            0                       # DTB accesses
system.cpu.itb.walker.walks                         0                       # Table walker walks requested
system.cpu.itb.walker.walkRequestOrigin_Requested::Data            0                       # Table walker requests started/completed, data/inst
system.cpu.itb.walker.walkRequestOrigin_Requested::Inst            0                       # Table walker requests started/completed, data/inst
system.cpu.itb.walker.walkRequestOrigin_Requested::total            0                       # Table walker requests started/completed, data/inst
system.cpu.itb.walker.walkRequestOrigin_Completed::Data            0                       # Table walker requests started/completed, data/inst
system.cpu.itb.walker.walkRequestOrigin_Completed::Inst            0                       # Table walker requests started/completed, data/inst
system.cpu.itb.walker.walkRequestOrigin_Completed::total            0                       # Table walker requests started/completed, data/inst
system.cpu.itb.walker.walkRequestOrigin::total            0                       # Table walker requests started/completed, data/inst
system.cpu.itb.inst_hits                            0                       # ITB inst hits
system.cpu.itb.inst_misses                          0                       # ITB inst misses
system.cpu.itb.read_hits                            0                       # DTB read hits
system.cpu.itb.read_misses                          0                       # DTB read misses
system.cpu.itb.write_hits                           0                       # DTB write hits
system.cpu.itb.write_misses                         0                       # DTB write misses
system.cpu.itb.flush_tlb                            0                       # Number of times complete TLB was flushed
system.cpu.itb.flush_tlb_mva                        0                       # Number of times TLB was flushed by MVA
system.cpu.itb.flush_tlb_mva_asid                   0                       # Number of times TLB was flushed by MVA & ASID
system.cpu.itb.flush_tlb_asid                       0                       # Number of times TLB was flushed by ASID
system.cpu.itb.flush_entries                        0                       # Number of entries that have been flushed from TLB
system.cpu.itb.align_faults                         0                       # Number of TLB faults due to alignment restrictions
system.cpu.itb.prefetch_faults                      0                       # Number of TLB faults due to prefetch
system.cpu.itb.domain_faults                        0                       # Number of TLB faults due to domain restrictions
system.cpu.itb.perms_faults                         0                       # Number of TLB faults due to permissions restrictions
system.cpu.itb.read_accesses                        0                       # DTB read accesses
system.cpu.itb.write_accesses                       0                       # DTB write accesses
system.cpu.itb.inst_accesses                        0                       # ITB inst accesses
system.cpu.itb.hits                                 0                       # DTB hits
system.cpu.itb.misses                               0                       # DTB misses
system.cpu.itb.accesses                             0                       # DTB accesses
system.cpu.workload.num_syscalls                   21                       # Number of system calls
system.cpu.numCycles                          5697457                       # number of cpu cycles simulated
system.cpu.numWorkItemsStarted                      0                       # number of work items this cpu started
system.cpu.numWorkItemsCompleted                    0                       # number of work items this cpu completed
system.cpu.fetch.icacheStallCycles            2213588                       # Number of cycles fetch is stalled on an Icache miss
system.cpu.fetch.Insts                       14058652                       # Number of instructions fetch has processed
system.cpu.fetch.Branches                     2552150                       # Number of branches that fetch encountered
system.cpu.fetch.predictedBranches            1497377                       # Number of branches that fetch has predicted taken
system.cpu.fetch.Cycles                       3374400                       # Number of cycles fetch has run and was not squashing or blocked
system.cpu.fetch.SquashCycles                  153940                       # Number of cycles fetch has spent squashing
system.cpu.fetch.MiscStallCycles                  207                       # Number of cycles fetch has spent waiting on interrupts, or bad addresses, or out of MSHRs
system.cpu.fetch.PendingTrapStallCycles           643                       # Number of stall cycles due to pending traps
system.cpu.fetch.IcacheWaitRetryStallCycles           65                       # Number of stall cycles due to full MSHR
system.cpu.fetch.CacheLines                   2157293                       # Number of cache lines fetched
system.cpu.fetch.IcacheSquashes                 33010                       # Number of outstanding Icache misses that were squashed
system.cpu.fetch.rateDist::samples            5665873                       # Number of instructions fetched each cycle (Total)
system.cpu.fetch.rateDist::mean              2.931426                       # Number of instructions fetched each cycle (Total)
system.cpu.fetch.rateDist::stdev             3.235912                       # Number of instructions fetched each cycle (Total)
system.cpu.fetch.rateDist::underflows               0      0.00%      0.00% # Number of instructions fetched each cycle (Total)
system.cpu.fetch.rateDist::0                  2387232     42.13%     42.13% # Number of instructions fetched each cycle (Total)
system.cpu.fetch.rateDist::1                   453326      8.00%     50.13% # Number of instructions fetched each cycle (Total)
system.cpu.fetch.rateDist::2                   371217      6.55%     56.69% # Number of instructions fetched each cycle (Total)
system.cpu.fetch.rateDist::3                   406049      7.17%     63.85% # Number of instructions fetched each cycle (Total)
system.cpu.fetch.rateDist::4                   231926      4.09%     67.95% # Number of instructions fetched each cycle (Total)
system.cpu.fetch.rateDist::5                   163894      2.89%     70.84% # Number of instructions fetched each cycle (Total)
system.cpu.fetch.rateDist::6                   210158      3.71%     74.55% # Number of instructions fetched each cycle (Total)
system.cpu.fetch.rateDist::7                   349511      6.17%     80.72% # Number of instructions fetched each cycle (Total)
system.cpu.fetch.rateDist::8                  1092560     19.28%    100.00% # Number of instructions fetched each cycle (Total)
system.cpu.fetch.rateDist::overflows                0      0.00%    100.00% # Number of instructions fetched each cycle (Total)
system.cpu.fetch.rateDist::min_value                0                       # Number of instructions fetched each cycle (Total)
system.cpu.fetch.rateDist::max_value                8                       # Number of instructions fetched each cycle (Total)
system.cpu.fetch.rateDist::total              5665873                       # Number of instructions fetched each cycle (Total)
system.cpu.fetch.branchRate                  0.447945                       # Number of branch fetches per cycle
system.cpu.fetch.rate                        2.467531                       # Number of inst fetches per cycle
system.cpu.decode.IdleCycles                  1599479                       # Number of cycles decode is idle
system.cpu.decode.BlockedCycles               1190124                       # Number of cycles decode is blocked
system.cpu.decode.RunCycles                   2403113                       # Number of cycles decode is running
system.cpu.decode.UnblockCycles                396520                       # Number of cycles decode is unblocking
system.cpu.decode.SquashCycles                  76637                       # Number of cycles decode is squashing
system.cpu.decode.BranchResolved               552221                       # Number of times decode resolved a branch
system.cpu.decode.BranchMispred                   345                       # Number of times decode detected a branch misprediction
system.cpu.decode.DecodedInsts               15930375                       # Number of instructions handled by decode
system.cpu.decode.SquashedInsts                  1204                       # Number of squashed instructions handled by decode
system.cpu.rename.SquashCycles                  76637                       # Number of cycles rename is squashing
system.cpu.rename.IdleCycles                  1782011                       # Number of cycles rename is idle
system.cpu.rename.BlockCycles                  407565                       # Number of cycles rename is blocking
system.cpu.rename.serializeStallCycles           4681                       # count of cycles rename stalled for serializing inst
system.cpu.rename.RunCycles                   2616713                       # Number of cycles rename is running
system.cpu.rename.UnblockCycles                778266                       # Number of cycles rename is unblocking
system.cpu.rename.RenamedInsts               15661886                       # Number of instructions processed by rename
system.cpu.rename.ROBFullEvents                     9                       # Number of times rename has blocked due to ROB full
system.cpu.rename.IQFullEvents                 708999                       # Number of times rename has blocked due to IQ full
system.cpu.rename.LQFullEvents                      7                       # Number of times rename has blocked due to LQ full
system.cpu.rename.SQFullEvents                   2963                       # Number of times rename has blocked due to SQ full
system.cpu.rename.RenamedOperands            21433682                       # Number of destination operands rename has renamed
system.cpu.rename.RenameLookups              75094949                       # Number of register rename lookups that rename has made
system.cpu.rename.int_rename_lookups         23037027                       # Number of integer rename lookups
system.cpu.rename.fp_rename_lookups                16                       # Number of floating rename lookups
system.cpu.rename.CommittedMaps              16214243                       # Number of HB maps that are committed
system.cpu.rename.UndoneMaps                  5219350                       # Number of HB maps that are undone due to squashing
system.cpu.rename.serializingInsts                106                       # count of serializing insts renamed
system.cpu.rename.tempSerializingInsts            106                       # count of temporary serializing insts renamed
system.cpu.rename.skidInsts                   1677739                       # count of insts added to the skid buffer
system.cpu.memDep0.insertedLoads               941514                       # Number of loads inserted to the mem dependence unit.
system.cpu.memDep0.insertedStores             1165675                       # Number of stores inserted to the mem dependence unit.
system.cpu.memDep0.conflictingLoads             43688                       # Number of conflicting loads.
system.cpu.memDep0.conflictingStores           680385                       # Number of conflicting stores.
system.cpu.iq.iqInstsAdded                   15204845                       # Number of instructions added to the IQ (excludes non-spec)
system.cpu.iq.iqNonSpecInstsAdded                 157                       # Number of non-speculative instructions added to the IQ
system.cpu.iq.iqInstsIssued                  13059366                       # Number of instructions issued
system.cpu.iq.iqSquashedInstsIssued              1344                       # Number of squashed instructions issued
system.cpu.iq.iqSquashedInstsExamined         3389751                       # Number of squashed instructions iterated over during squash; mainly for profiling
system.cpu.iq.iqSquashedOperandsExamined     11918948                       # Number of squashed operands that are examined and possibly removed from graph
system.cpu.iq.iqSquashedNonSpecRemoved             17                       # Number of squashed non-spec instructions that were removed
system.cpu.iq.issued_per_cycle::samples       5665873                       # Number of insts issued each cycle
system.cpu.iq.issued_per_cycle::mean         2.304917                       # Number of insts issued each cycle
system.cpu.iq.issued_per_cycle::stdev        1.858122                       # Number of insts issued each cycle
system.cpu.iq.issued_per_cycle::underflows            0      0.00%      0.00% # Number of insts issued each cycle
system.cpu.iq.issued_per_cycle::0              956686     16.89%     16.89% # Number of insts issued each cycle
system.cpu.iq.issued_per_cycle::1             1292478     22.81%     39.70% # Number of insts issued each cycle
system.cpu.iq.issued_per_cycle::2             1315962     23.23%     62.92% # Number of insts issued each cycle
system.cpu.iq.issued_per_cycle::3              587907     10.38%     73.30% # Number of insts issued each cycle
system.cpu.iq.issued_per_cycle::4              800940     14.14%     87.44% # Number of insts issued each cycle
system.cpu.iq.issued_per_cycle::5              303242      5.35%     92.79% # Number of insts issued each cycle
system.cpu.iq.issued_per_cycle::6              267512      4.72%     97.51% # Number of insts issued each cycle
system.cpu.iq.issued_per_cycle::7               82967      1.46%     98.97% # Number of insts issued each cycle
system.cpu.iq.issued_per_cycle::8               58179      1.03%    100.00% # Number of insts issued each cycle
system.cpu.iq.issued_per_cycle::overflows            0      0.00%    100.00% # Number of insts issued each cycle
system.cpu.iq.issued_per_cycle::min_value            0                       # Number of insts issued each cycle
system.cpu.iq.issued_per_cycle::max_value            8                       # Number of insts issued each cycle
system.cpu.iq.issued_per_cycle::total         5665873                       # Number of insts issued each cycle
system.cpu.iq.fu_full::No_OpClass                   0      0.00%      0.00% # attempts to use FU when none available
system.cpu.iq.fu_full::IntAlu                  126395     82.68%     82.68% # attempts to use FU when none available
system.cpu.iq.fu_full::IntMult                      0      0.00%     82.68% # attempts to use FU when none available
system.cpu.iq.fu_full::IntDiv                       0      0.00%     82.68% # attempts to use FU when none available
system.cpu.iq.fu_full::FloatAdd                     0      0.00%     82.68% # attempts to use FU when none available
system.cpu.iq.fu_full::FloatCmp                     0      0.00%     82.68% # attempts to use FU when none available
system.cpu.iq.fu_full::FloatCvt                     0      0.00%     82.68% # attempts to use FU when none available
system.cpu.iq.fu_full::FloatMult                    0      0.00%     82.68% # attempts to use FU when none available
system.cpu.iq.fu_full::FloatDiv                     0      0.00%     82.68% # attempts to use FU when none available
system.cpu.iq.fu_full::FloatSqrt                    0      0.00%     82.68% # attempts to use FU when none available
system.cpu.iq.fu_full::SimdAdd                      0      0.00%     82.68% # attempts to use FU when none available
system.cpu.iq.fu_full::SimdAddAcc                   0      0.00%     82.68% # attempts to use FU when none available
system.cpu.iq.fu_full::SimdAlu                      0      0.00%     82.68% # attempts to use FU when none available
system.cpu.iq.fu_full::SimdCmp                      0      0.00%     82.68% # attempts to use FU when none available
system.cpu.iq.fu_full::SimdCvt                      0      0.00%     82.68% # attempts to use FU when none available
system.cpu.iq.fu_full::SimdMisc                     0      0.00%     82.68% # attempts to use FU when none available
system.cpu.iq.fu_full::SimdMult                     0      0.00%     82.68% # attempts to use FU when none available
system.cpu.iq.fu_full::SimdMultAcc                  0      0.00%     82.68% # attempts to use FU when none available
system.cpu.iq.fu_full::SimdShift                    0      0.00%     82.68% # attempts to use FU when none available
system.cpu.iq.fu_full::SimdShiftAcc                 0      0.00%     82.68% # attempts to use FU when none available
system.cpu.iq.fu_full::SimdSqrt                     0      0.00%     82.68% # attempts to use FU when none available
system.cpu.iq.fu_full::SimdFloatAdd                 0      0.00%     82.68% # attempts to use FU when none available
system.cpu.iq.fu_full::SimdFloatAlu                 0      0.00%     82.68% # attempts to use FU when none available
system.cpu.iq.fu_full::SimdFloatCmp                 0      0.00%     82.68% # attempts to use FU when none available
system.cpu.iq.fu_full::SimdFloatCvt                 0      0.00%     82.68% # attempts to use FU when none available
system.cpu.iq.fu_full::SimdFloatDiv                 0      0.00%     82.68% # attempts to use FU when none available
system.cpu.iq.fu_full::SimdFloatMisc                0      0.00%     82.68% # attempts to use FU when none available
system.cpu.iq.fu_full::SimdFloatMult                0      0.00%     82.68% # attempts to use FU when none available
system.cpu.iq.fu_full::SimdFloatMultAcc             0      0.00%     82.68% # attempts to use FU when none available
system.cpu.iq.fu_full::SimdFloatSqrt                0      0.00%     82.68% # attempts to use FU when none available
system.cpu.iq.fu_full::MemRead                  11067      7.24%     89.92% # attempts to use FU when none available
system.cpu.iq.fu_full::MemWrite                 15415     10.08%    100.00% # attempts to use FU when none available
system.cpu.iq.fu_full::IprAccess                    0      0.00%    100.00% # attempts to use FU when none available
system.cpu.iq.fu_full::InstPrefetch                 0      0.00%    100.00% # attempts to use FU when none available
system.cpu.iq.FU_type_0::No_OpClass                 0      0.00%      0.00% # Type of FU issued
system.cpu.iq.FU_type_0::IntAlu              11071880     84.78%     84.78% # Type of FU issued
system.cpu.iq.FU_type_0::IntMult               124740      0.96%     85.74% # Type of FU issued
system.cpu.iq.FU_type_0::IntDiv                     0      0.00%     85.74% # Type of FU issued
system.cpu.iq.FU_type_0::FloatAdd                   0      0.00%     85.74% # Type of FU issued
system.cpu.iq.FU_type_0::FloatCmp                   0      0.00%     85.74% # Type of FU issued
system.cpu.iq.FU_type_0::FloatCvt                   0      0.00%     85.74% # Type of FU issued
system.cpu.iq.FU_type_0::FloatMult                  0      0.00%     85.74% # Type of FU issued
system.cpu.iq.FU_type_0::FloatDiv                   0      0.00%     85.74% # Type of FU issued
system.cpu.iq.FU_type_0::FloatSqrt                  0      0.00%     85.74% # Type of FU issued
system.cpu.iq.FU_type_0::SimdAdd                    0      0.00%     85.74% # Type of FU issued
system.cpu.iq.FU_type_0::SimdAddAcc                 0      0.00%     85.74% # Type of FU issued
system.cpu.iq.FU_type_0::SimdAlu                    0      0.00%     85.74% # Type of FU issued
system.cpu.iq.FU_type_0::SimdCmp                    0      0.00%     85.74% # Type of FU issued
system.cpu.iq.FU_type_0::SimdCvt                    0      0.00%     85.74% # Type of FU issued
system.cpu.iq.FU_type_0::SimdMisc                   0      0.00%     85.74% # Type of FU issued
system.cpu.iq.FU_type_0::SimdMult                   0      0.00%     85.74% # Type of FU issued
system.cpu.iq.FU_type_0::SimdMultAcc                0      0.00%     85.74% # Type of FU issued
system.cpu.iq.FU_type_0::SimdShift                  0      0.00%     85.74% # Type of FU issued
system.cpu.iq.FU_type_0::SimdShiftAcc               0      0.00%     85.74% # Type of FU issued
system.cpu.iq.FU_type_0::SimdSqrt                   0      0.00%     85.74% # Type of FU issued
system.cpu.iq.FU_type_0::SimdFloatAdd               0      0.00%     85.74% # Type of FU issued
system.cpu.iq.FU_type_0::SimdFloatAlu               0      0.00%     85.74% # Type of FU issued
system.cpu.iq.FU_type_0::SimdFloatCmp               0      0.00%     85.74% # Type of FU issued
system.cpu.iq.FU_type_0::SimdFloatCvt               0      0.00%     85.74% # Type of FU issued
system.cpu.iq.FU_type_0::SimdFloatDiv               0      0.00%     85.74% # Type of FU issued
system.cpu.iq.FU_type_0::SimdFloatMisc              0      0.00%     85.74% # Type of FU issued
system.cpu.iq.FU_type_0::SimdFloatMult              0      0.00%     85.74% # Type of FU issued
system.cpu.iq.FU_type_0::SimdFloatMultAcc            0      0.00%     85.74% # Type of FU issued
system.cpu.iq.FU_type_0::SimdFloatSqrt              0      0.00%     85.74% # Type of FU issued
system.cpu.iq.FU_type_0::MemRead               902911      6.91%     92.65% # Type of FU issued
system.cpu.iq.FU_type_0::MemWrite              959835      7.35%    100.00% # Type of FU issued
system.cpu.iq.FU_type_0::IprAccess                  0      0.00%    100.00% # Type of FU issued
system.cpu.iq.FU_type_0::InstPrefetch               0      0.00%    100.00% # Type of FU issued
system.cpu.iq.FU_type_0::total               13059366                       # Type of FU issued
system.cpu.iq.rate                           2.292139                       # Inst issue rate
system.cpu.iq.fu_busy_cnt                      152877                       # FU busy when requested
system.cpu.iq.fu_busy_rate                   0.011706                       # FU busy rate (busy events/executed inst)
system.cpu.iq.int_inst_queue_reads           31938789                       # Number of integer instruction queue reads
system.cpu.iq.int_inst_queue_writes          18594818                       # Number of integer instruction queue writes
system.cpu.iq.int_inst_queue_wakeup_accesses     12835443                       # Number of integer instruction queue wakeup accesses
system.cpu.iq.fp_inst_queue_reads                  36                       # Number of floating instruction queue reads
system.cpu.iq.fp_inst_queue_writes                 16                       # Number of floating instruction queue writes
system.cpu.iq.fp_inst_queue_wakeup_accesses           16                       # Number of floating instruction queue wakeup accesses
system.cpu.iq.int_alu_accesses               13212223                       # Number of integer alu accesses
system.cpu.iq.fp_alu_accesses                      20                       # Number of floating point alu accesses
system.cpu.iew.lsq.thread0.forwLoads             1280                       # Number of loads that had data forwarded from stores
system.cpu.iew.lsq.thread0.invAddrLoads             0                       # Number of loads ignored due to an invalid address
system.cpu.iew.lsq.thread0.squashedLoads       233135                       # Number of loads squashed
system.cpu.iew.lsq.thread0.ignoredResponses           12                       # Number of memory responses ignored because the instruction is squashed
system.cpu.iew.lsq.thread0.memOrderViolation           89                       # Number of memory ordering violations
system.cpu.iew.lsq.thread0.squashedStores       258116                       # Number of stores squashed
system.cpu.iew.lsq.thread0.invAddrSwpfs             0                       # Number of software prefetches ignored due to an invalid address
system.cpu.iew.lsq.thread0.blockedLoads             0                       # Number of blocked loads due to partial load-store forwarding
system.cpu.iew.lsq.thread0.rescheduledLoads        72632                       # Number of loads that were rescheduled
system.cpu.iew.lsq.thread0.cacheBlocked             6                       # Number of times an access to memory failed due to the cache being blocked
system.cpu.iew.iewIdleCycles                        0                       # Number of cycles IEW is idle
system.cpu.iew.iewSquashCycles                  76637                       # Number of cycles IEW is squashing
system.cpu.iew.iewBlockCycles                  379811                       # Number of cycles IEW is blocking
system.cpu.iew.iewUnblockCycles                    67                       # Number of cycles IEW is unblocking
system.cpu.iew.iewDispatchedInsts            15205091                       # Number of instructions dispatched to IQ
system.cpu.iew.iewDispSquashedInsts              1855                       # Number of squashed instructions skipped by dispatch
system.cpu.iew.iewDispLoadInsts                941514                       # Number of dispatched load instructions
system.cpu.iew.iewDispStoreInsts              1165675                       # Number of dispatched store instructions
system.cpu.iew.iewDispNonSpecInsts                 97                       # Number of dispatched non-speculative instructions
system.cpu.iew.iewIQFullEvents                      8                       # Number of times the IQ has become full, causing a stall
system.cpu.iew.iewLSQFullEvents                    57                       # Number of times the LSQ has become full, causing a stall
system.cpu.iew.memOrderViolationEvents             89                       # Number of memory order violations
system.cpu.iew.predictedTakenIncorrect          41601                       # Number of branches that were predicted taken incorrectly
system.cpu.iew.predictedNotTakenIncorrect        35156                       # Number of branches that were predicted not taken incorrectly
system.cpu.iew.branchMispredicts                76757                       # Number of branch mispredicts detected at execute
system.cpu.iew.iewExecutedInsts              12982911                       # Number of executed instructions
system.cpu.iew.iewExecLoadInsts                887168                       # Number of load instructions executed
system.cpu.iew.iewExecSquashedInsts             76454                       # Number of squashed instructions skipped in execute
system.cpu.iew.exec_swp                             0                       # number of swp insts executed
system.cpu.iew.exec_nop                            89                       # number of nop insts executed
system.cpu.iew.exec_refs                      1832943                       # number of memory reference insts executed
system.cpu.iew.exec_branches                  2030176                       # Number of branches executed
system.cpu.iew.exec_stores                     945775                       # Number of stores executed
system.cpu.iew.exec_rate                     2.278720                       # Inst execution rate
system.cpu.iew.wb_sent                       12868150                       # cumulative count of insts sent to commit
system.cpu.iew.wb_count                      12835459                       # cumulative count of insts written-back
system.cpu.iew.wb_producers                   8931486                       # num instructions producing a value
system.cpu.iew.wb_consumers                  27035412                       # num instructions consuming a value
system.cpu.iew.wb_penalized                         0                       # number of instrctions required to write to 'other' IQ
system.cpu.iew.wb_rate                       2.252840                       # insts written-back per cycle
system.cpu.iew.wb_fanout                     0.330362                       # average fanout of values written-back
system.cpu.iew.wb_penalized_rate                    0                       # fraction of instructions written-back that wrote to 'other' IQ
system.cpu.commit.commitSquashedInsts         3389846                       # The number of squashed insts skipped by commit
system.cpu.commit.commitNonSpecStalls             140                       # The number of times commit has been forced to stall to communicate backwards
system.cpu.commit.branchMispredicts             76567                       # The number of times a branch was mispredicted
system.cpu.commit.committed_per_cycle::samples      5209599                       # Number of insts commited each cycle
system.cpu.commit.committed_per_cycle::mean     2.267966                       # Number of insts commited each cycle
system.cpu.commit.committed_per_cycle::stdev     2.232788                       # Number of insts commited each cycle
system.cpu.commit.committed_per_cycle::underflows            0      0.00%      0.00% # Number of insts commited each cycle
system.cpu.commit.committed_per_cycle::0       916374     17.59%     17.59% # Number of insts commited each cycle
system.cpu.commit.committed_per_cycle::1      1754677     33.68%     51.27% # Number of insts commited each cycle
system.cpu.commit.committed_per_cycle::2       802215     15.40%     66.67% # Number of insts commited each cycle
system.cpu.commit.committed_per_cycle::3       658938     12.65%     79.32% # Number of insts commited each cycle
system.cpu.commit.committed_per_cycle::4       286296      5.50%     84.81% # Number of insts commited each cycle
system.cpu.commit.committed_per_cycle::5       213251      4.09%     88.91% # Number of insts commited each cycle
system.cpu.commit.committed_per_cycle::6       152050      2.92%     91.83% # Number of insts commited each cycle
system.cpu.commit.committed_per_cycle::7        50853      0.98%     92.80% # Number of insts commited each cycle
system.cpu.commit.committed_per_cycle::8       374945      7.20%    100.00% # Number of insts commited each cycle
system.cpu.commit.committed_per_cycle::overflows            0      0.00%    100.00% # Number of insts commited each cycle
system.cpu.commit.committed_per_cycle::min_value            0                       # Number of insts commited each cycle
system.cpu.commit.committed_per_cycle::max_value            8                       # Number of insts commited each cycle
system.cpu.commit.committed_per_cycle::total      5209599                       # Number of insts commited each cycle
system.cpu.commit.committedInsts             10000004                       # Number of instructions committed
system.cpu.commit.committedOps               11815191                       # Number of ops (including micro ops) committed
system.cpu.commit.swp_count                         0                       # Number of s/w prefetches committed
system.cpu.commit.refs                        1615930                       # Number of memory references committed
system.cpu.commit.loads                        708375                       # Number of loads committed
system.cpu.commit.membars                          60                       # Number of memory barriers committed
system.cpu.commit.branches                    1869008                       # Number of branches committed
system.cpu.commit.fp_insts                         16                       # Number of committed floating point instructions.
system.cpu.commit.int_insts                  10732648                       # Number of committed integer instructions.
system.cpu.commit.function_calls               412030                       # Number of function calls committed.
system.cpu.commit.op_class_0::No_OpClass            0      0.00%      0.00% # Class of committed instruction
system.cpu.commit.op_class_0::IntAlu         10084975     85.36%     85.36% # Class of committed instruction
system.cpu.commit.op_class_0::IntMult          114286      0.97%     86.32% # Class of committed instruction
system.cpu.commit.op_class_0::IntDiv                0      0.00%     86.32% # Class of committed instruction
system.cpu.commit.op_class_0::FloatAdd              0      0.00%     86.32% # Class of committed instruction
system.cpu.commit.op_class_0::FloatCmp              0      0.00%     86.32% # Class of committed instruction
system.cpu.commit.op_class_0::FloatCvt              0      0.00%     86.32% # Class of committed instruction
system.cpu.commit.op_class_0::FloatMult             0      0.00%     86.32% # Class of committed instruction
system.cpu.commit.op_class_0::FloatDiv              0      0.00%     86.32% # Class of committed instruction
system.cpu.commit.op_class_0::FloatSqrt             0      0.00%     86.32% # Class of committed instruction
system.cpu.commit.op_class_0::SimdAdd               0      0.00%     86.32% # Class of committed instruction
system.cpu.commit.op_class_0::SimdAddAcc            0      0.00%     86.32% # Class of committed instruction
system.cpu.commit.op_class_0::SimdAlu               0      0.00%     86.32% # Class of committed instruction
system.cpu.commit.op_class_0::SimdCmp               0      0.00%     86.32% # Class of committed instruction
system.cpu.commit.op_class_0::SimdCvt               0      0.00%     86.32% # Class of committed instruction
system.cpu.commit.op_class_0::SimdMisc              0      0.00%     86.32% # Class of committed instruction
system.cpu.commit.op_class_0::SimdMult              0      0.00%     86.32% # Class of committed instruction
system.cpu.commit.op_class_0::SimdMultAcc            0      0.00%     86.32% # Class of committed instruction
system.cpu.commit.op_class_0::SimdShift             0      0.00%     86.32% # Class of committed instruction
system.cpu.commit.op_class_0::SimdShiftAcc            0      0.00%     86.32% # Class of committed instruction
system.cpu.commit.op_class_0::SimdSqrt              0      0.00%     86.32% # Class of committed instruction
system.cpu.commit.op_class_0::SimdFloatAdd            0      0.00%     86.32% # Class of committed instruction
system.cpu.commit.op_class_0::SimdFloatAlu            0      0.00%     86.32% # Class of committed instruction
system.cpu.commit.op_class_0::SimdFloatCmp            0      0.00%     86.32% # Class of committed instruction
system.cpu.commit.op_class_0::SimdFloatCvt            0      0.00%     86.32% # Class of committed instruction
system.cpu.commit.op_class_0::SimdFloatDiv            0      0.00%     86.32% # Class of committed instruction
system.cpu.commit.op_class_0::SimdFloatMisc            0      0.00%     86.32% # Class of committed instruction
system.cpu.commit.op_class_0::SimdFloatMult            0      0.00%     86.32% # Class of committed instruction
system.cpu.commit.op_class_0::SimdFloatMultAcc            0      0.00%     86.32% # Class of committed instruction
system.cpu.commit.op_class_0::SimdFloatSqrt            0      0.00%     86.32% # Class of committed instruction
system.cpu.commit.op_class_0::MemRead          708375      6.00%     92.32% # Class of committed instruction
system.cpu.commit.op_class_0::MemWrite         907555      7.68%    100.00% # Class of committed instruction
system.cpu.commit.op_class_0::IprAccess             0      0.00%    100.00% # Class of committed instruction
system.cpu.commit.op_class_0::InstPrefetch            0      0.00%    100.00% # Class of committed instruction
system.cpu.commit.op_class_0::total          11815191                       # Class of committed instruction
system.cpu.commit.bw_lim_events                374945                       # number cycles where commit BW limit reached
[...]
system.cpu.dcache.blocked::no_mshrs                 6                       # number of cycles access was blocked
system.cpu.dcache.blocked::no_targets               0                       # number of cycles access was blocked
system.cpu.dcache.avg_blocked_cycles::no_mshrs    57.166667                       # average number of cycles each access was blocked
system.cpu.dcache.avg_blocked_cycles::no_targets          nan                       # average number of cycles each access was blocked
system.cpu.dcache.fast_writes                       0                       # number of fast writes performed
system.cpu.dcache.cache_copies                      0                       # number of cache copies performed
system.cpu.dcache.writebacks::writebacks          125                       # number of writebacks
system.cpu.dcache.writebacks::total               125                       # number of writebacks
system.cpu.dcache.ReadReq_mshr_hits::cpu.data          166                       # number of ReadReq MSHR hits
system.cpu.dcache.ReadReq_mshr_hits::total          166                       # number of ReadReq MSHR hits
system.cpu.dcache.WriteReq_mshr_hits::cpu.data          315                       # number of WriteReq MSHR hits
system.cpu.dcache.WriteReq_mshr_hits::total          315                       # number of WriteReq MSHR hits
system.cpu.dcache.LoadLockedReq_mshr_hits::cpu.data            5                       # number of LoadLockedReq MSHR hits
system.cpu.dcache.LoadLockedReq_mshr_hits::total            5                       # number of LoadLockedReq MSHR hits
system.cpu.dcache.demand_mshr_hits::cpu.data          481                       # number of demand (read+write) MSHR hits
system.cpu.dcache.demand_mshr_hits::total          481                       # number of demand (read+write) MSHR hits
system.cpu.dcache.overall_mshr_hits::cpu.data          481                       # number of overall MSHR hits
system.cpu.dcache.overall_mshr_hits::total          481                       # number of overall MSHR hits
system.cpu.dcache.ReadReq_mshr_misses::cpu.data          195                       # number of ReadReq MSHR misses
system.cpu.dcache.ReadReq_mshr_misses::total          195                       # number of ReadReq MSHR misses
system.cpu.dcache.WriteReq_mshr_misses::cpu.data          221                       # number of WriteReq MSHR misses
system.cpu.dcache.WriteReq_mshr_misses::total          221                       # number of WriteReq MSHR misses
system.cpu.dcache.demand_mshr_misses::cpu.data          416                       # number of demand (read+write) MSHR misses
system.cpu.dcache.demand_mshr_misses::total          416                       # number of demand (read+write) MSHR misses
system.cpu.dcache.overall_mshr_misses::cpu.data          416                       # number of overall MSHR misses
system.cpu.dcache.overall_mshr_misses::total          416                       # number of overall MSHR misses
system.cpu.dcache.ReadReq_mshr_miss_latency::cpu.data     10200000                       # number of ReadReq MSHR miss cycles
system.cpu.dcache.ReadReq_mshr_miss_latency::total     10200000                       # number of ReadReq MSHR miss cycles
system.cpu.dcache.WriteReq_mshr_miss_latency::cpu.data     13150750                       # number of WriteReq MSHR miss cycles
system.cpu.dcache.WriteReq_mshr_miss_latency::total     13150750                       # number of WriteReq MSHR miss cycles
system.cpu.dcache.demand_mshr_miss_latency::cpu.data     23350750                       # number of demand (read+write) MSHR miss cycles
system.cpu.dcache.demand_mshr_miss_latency::total     23350750                       # number of demand (read+write) MSHR miss cycles
system.cpu.dcache.overall_mshr_miss_latency::cpu.data     23350750                       # number of overall MSHR miss cycles
system.cpu.dcache.overall_mshr_miss_latency::total     23350750                       # number of overall MSHR miss cycles
system.cpu.dcache.ReadReq_mshr_miss_rate::cpu.data     0.000238                       # mshr miss rate for ReadReq accesses
system.cpu.dcache.ReadReq_mshr_miss_rate::total     0.000238                       # mshr miss rate for ReadReq accesses
system.cpu.dcache.WriteReq_mshr_miss_rate::cpu.data     0.000244                       # mshr miss rate for WriteReq accesses
system.cpu.dcache.WriteReq_mshr_miss_rate::total     0.000244                       # mshr miss rate for WriteReq accesses
system.cpu.dcache.demand_mshr_miss_rate::cpu.data     0.000241                       # mshr miss rate for demand accesses
system.cpu.dcache.demand_mshr_miss_rate::total     0.000241                       # mshr miss rate for demand accesses
system.cpu.dcache.overall_mshr_miss_rate::cpu.data     0.000241                       # mshr miss rate for overall accesses
system.cpu.dcache.overall_mshr_miss_rate::total     0.000241                       # mshr miss rate for overall accesses
system.cpu.dcache.ReadReq_avg_mshr_miss_latency::cpu.data 52307.692308                       # average ReadReq mshr miss latency
system.cpu.dcache.ReadReq_avg_mshr_miss_latency::total 52307.692308                       # average ReadReq mshr miss latency
system.cpu.dcache.WriteReq_avg_mshr_miss_latency::cpu.data 59505.656109                       # average WriteReq mshr miss latency
system.cpu.dcache.WriteReq_avg_mshr_miss_latency::total 59505.656109                       # average WriteReq mshr miss latency
system.cpu.dcache.demand_avg_mshr_miss_latency::cpu.data 56131.610577                       # average overall mshr miss latency
system.cpu.dcache.demand_avg_mshr_miss_latency::total 56131.610577                       # average overall mshr miss latency
system.cpu.dcache.overall_avg_mshr_miss_latency::cpu.data 56131.610577                       # average overall mshr miss latency
system.cpu.dcache.overall_avg_mshr_miss_latency::total 56131.610577                       # average overall mshr miss latency
system.cpu.dcache.no_allocate_misses                0                       # Number of misses that were no-allocate
system.cpu.icache.tags.replacements               578                       # number of replacements
system.cpu.icache.tags.tagsinuse           127.843110                       # Cycle average of tags in use
system.cpu.icache.tags.total_refs             2156381                       # Total number of references to valid blocks.
system.cpu.icache.tags.sampled_refs               706                       # Sample count of references to valid blocks.
system.cpu.icache.tags.avg_refs           3054.364023                       # Average number of references to valid blocks.
system.cpu.icache.tags.warmup_cycle          13281250                       # Cycle when the warmup percentage was hit.
system.cpu.icache.tags.occ_blocks::cpu.inst   127.843110                       # Average occupied blocks per requestor
system.cpu.icache.tags.occ_percent::cpu.inst     0.998774                       # Average percentage of cache occupancy
system.cpu.icache.tags.occ_percent::total     0.998774                       # Average percentage of cache occupancy
system.cpu.icache.tags.occ_task_id_blocks::1024          128                       # Occupied blocks per task id
system.cpu.icache.tags.age_task_id_blocks_1024::3          128                       # Occupied blocks per task id
system.cpu.icache.tags.occ_task_id_percent::1024            1                       # Percentage of cache occupancy per task id
system.cpu.icache.tags.tag_accesses           8629870                       # Number of tag accesses
system.cpu.icache.tags.data_accesses          8629870                       # Number of data accesses
system.cpu.icache.ReadReq_hits::cpu.inst      2156381                       # number of ReadReq hits
system.cpu.icache.ReadReq_hits::total         2156381                       # number of ReadReq hits
system.cpu.icache.demand_hits::cpu.inst       2156381                       # number of demand (read+write) hits
system.cpu.icache.demand_hits::total          2156381                       # number of demand (read+write) hits
system.cpu.icache.overall_hits::cpu.inst      2156381                       # number of overall hits
system.cpu.icache.overall_hits::total         2156381                       # number of overall hits
system.cpu.icache.ReadReq_misses::cpu.inst          910                       # number of ReadReq misses
system.cpu.icache.ReadReq_misses::total           910                       # number of ReadReq misses
system.cpu.icache.demand_misses::cpu.inst          910                       # number of demand (read+write) misses
system.cpu.icache.demand_misses::total            910                       # number of demand (read+write) misses
system.cpu.icache.overall_misses::cpu.inst          910                       # number of overall misses
system.cpu.icache.overall_misses::total           910                       # number of overall misses
system.cpu.icache.ReadReq_miss_latency::cpu.inst     45568498                       # number of ReadReq miss cycles
system.cpu.icache.ReadReq_miss_latency::total     45568498                       # number of ReadReq miss cycles
system.cpu.icache.demand_miss_latency::cpu.inst     45568498                       # number of demand (read+write) miss cycles
system.cpu.icache.demand_miss_latency::total     45568498                       # number of demand (read+write) miss cycles
system.cpu.icache.overall_miss_latency::cpu.inst     45568498                       # number of overall miss cycles
system.cpu.icache.overall_miss_latency::total     45568498                       # number of overall miss cycles
system.cpu.icache.ReadReq_accesses::cpu.inst      2157291                       # number of ReadReq accesses(hits+misses)
system.cpu.icache.ReadReq_accesses::total      2157291                       # number of ReadReq accesses(hits+misses)
system.cpu.icache.demand_accesses::cpu.inst      2157291                       # number of demand (read+write) accesses
system.cpu.icache.demand_accesses::total      2157291                       # number of demand (read+write) accesses
system.cpu.icache.overall_accesses::cpu.inst      2157291                       # number of overall (read+write) accesses
system.cpu.icache.overall_accesses::total      2157291                       # number of overall (read+write) accesses
system.cpu.icache.ReadReq_miss_rate::cpu.inst     0.000422                       # miss rate for ReadReq accesses
system.cpu.icache.ReadReq_miss_rate::total     0.000422                       # miss rate for ReadReq accesses
system.cpu.icache.demand_miss_rate::cpu.inst     0.000422                       # miss rate for demand accesses
system.cpu.icache.demand_miss_rate::total     0.000422                       # miss rate for demand accesses
system.cpu.icache.overall_miss_rate::cpu.inst     0.000422                       # miss rate for overall accesses
system.cpu.icache.overall_miss_rate::total     0.000422                       # miss rate for overall accesses
system.cpu.icache.ReadReq_avg_miss_latency::cpu.inst 50075.272527                       # average ReadReq miss latency
system.cpu.icache.ReadReq_avg_miss_latency::total 50075.272527                       # average ReadReq miss latency
system.cpu.icache.demand_avg_miss_latency::cpu.inst 50075.272527                       # average overall miss latency
system.cpu.icache.demand_avg_miss_latency::total 50075.272527                       # average overall miss latency
system.cpu.icache.overall_avg_miss_latency::cpu.inst 50075.272527                       # average overall miss latency
system.cpu.icache.overall_avg_miss_latency::total 50075.272527                       # average overall miss latency
system.cpu.icache.blocked_cycles::no_mshrs          600                       # number of cycles access was blocked
system.cpu.icache.blocked_cycles::no_targets            0                       # number of cycles access was blocked
system.cpu.icache.blocked::no_mshrs                17                       # number of cycles access was blocked
system.cpu.icache.blocked::no_targets               0                       # number of cycles access was blocked
system.cpu.icache.avg_blocked_cycles::no_mshrs    35.294118                       # average number of cycles each access was blocked
system.cpu.icache.avg_blocked_cycles::no_targets          nan                       # average number of cycles each access was blocked
system.cpu.icache.fast_writes                       0                       # number of fast writes performed
system.cpu.icache.cache_copies                      0                       # number of cache copies performed
system.cpu.icache.ReadReq_mshr_hits::cpu.inst          204                       # number of ReadReq MSHR hits
system.cpu.icache.ReadReq_mshr_hits::total          204                       # number of ReadReq MSHR hits
system.cpu.icache.demand_mshr_hits::cpu.inst          204                       # number of demand (read+write) MSHR hits
system.cpu.icache.demand_mshr_hits::total          204                       # number of demand (read+write) MSHR hits
system.cpu.icache.overall_mshr_hits::cpu.inst          204                       # number of overall MSHR hits
system.cpu.icache.overall_mshr_hits::total          204                       # number of overall MSHR hits
system.cpu.icache.ReadReq_mshr_misses::cpu.inst          706                       # number of ReadReq MSHR misses
system.cpu.icache.ReadReq_mshr_misses::total          706                       # number of ReadReq MSHR misses
system.cpu.icache.demand_mshr_misses::cpu.inst          706                       # number of demand (read+write) MSHR misses
system.cpu.icache.demand_mshr_misses::total          706                       # number of demand (read+write) MSHR misses
system.cpu.icache.overall_mshr_misses::cpu.inst          706                       # number of overall MSHR misses
system.cpu.icache.overall_mshr_misses::total          706                       # number of overall MSHR misses
system.cpu.icache.ReadReq_mshr_miss_latency::cpu.inst     36513249                       # number of ReadReq MSHR miss cycles
system.cpu.icache.ReadReq_mshr_miss_latency::total     36513249                       # number of ReadReq MSHR miss cycles
system.cpu.icache.demand_mshr_miss_latency::cpu.inst     36513249                       # number of demand (read+write) MSHR miss cycles
system.cpu.icache.demand_mshr_miss_latency::total     36513249                       # number of demand (read+write) MSHR miss cycles
system.cpu.icache.overall_mshr_miss_latency::cpu.inst     36513249                       # number of overall MSHR miss cycles
system.cpu.icache.overall_mshr_miss_latency::total     36513249                       # number of overall MSHR miss cycles
system.cpu.icache.ReadReq_mshr_miss_rate::cpu.inst     0.000327                       # mshr miss rate for ReadReq accesses
system.cpu.icache.ReadReq_mshr_miss_rate::total     0.000327                       # mshr miss rate for ReadReq accesses
system.cpu.icache.demand_mshr_miss_rate::cpu.inst     0.000327                       # mshr miss rate for demand accesses
system.cpu.icache.demand_mshr_miss_rate::total     0.000327                       # mshr miss rate for demand accesses
system.cpu.icache.overall_mshr_miss_rate::cpu.inst     0.000327                       # mshr miss rate for overall accesses
system.cpu.icache.overall_mshr_miss_rate::total     0.000327                       # mshr miss rate for overall accesses
system.cpu.icache.ReadReq_avg_mshr_miss_latency::cpu.inst 51718.483003                       # average ReadReq mshr miss latency
system.cpu.icache.ReadReq_avg_mshr_miss_latency::total 51718.483003                       # average ReadReq mshr miss latency
system.cpu.icache.demand_avg_mshr_miss_latency::cpu.inst 51718.483003                       # average overall mshr miss latency
system.cpu.icache.demand_avg_mshr_miss_latency::total 51718.483003                       # average overall mshr miss latency
system.cpu.icache.overall_avg_mshr_miss_latency::cpu.inst 51718.483003                       # average overall mshr miss latency
system.cpu.icache.overall_avg_mshr_miss_latency::total 51718.483003                       # average overall mshr miss latency
system.cpu.icache.no_allocate_misses                0                       # Number of misses that were no-allocate
system.membus.trans_dist::ReadReq                 901                       # Transaction distribution
system.membus.trans_dist::ReadResp                901                       # Transaction distribution
system.membus.trans_dist::Writeback               125                       # Transaction distribution
system.membus.trans_dist::ReadExReq               221                       # Transaction distribution
system.membus.trans_dist::ReadExResp              221                       # Transaction distribution
system.membus.pkt_count_system.cpu.icache.mem_side::system.mem_ctrls.port         1412                       # Packet count per connected master and slave (bytes)
system.membus.pkt_count_system.cpu.dcache.mem_side::system.mem_ctrls.port          957                       # Packet count per connected master and slave (bytes)
system.membus.pkt_count::total                   2369                       # Packet count per connected master and slave (bytes)
system.membus.pkt_size_system.cpu.icache.mem_side::system.mem_ctrls.port        45184                       # Cumulative packet size per connected master and slave (bytes)
system.membus.pkt_size_system.cpu.dcache.mem_side::system.mem_ctrls.port        34624                       # Cumulative packet size per connected master and slave (bytes)
system.membus.pkt_size::total                   79808                       # Cumulative packet size per connected master and slave (bytes)
system.membus.snoops                                0                       # Total snoops (count)
system.membus.snoop_fanout::samples              1247                       # Request fanout histogram
system.membus.snoop_fanout::mean                    1                       # Request fanout histogram
system.membus.snoop_fanout::stdev                   0                       # Request fanout histogram
system.membus.snoop_fanout::underflows              0      0.00%      0.00% # Request fanout histogram
system.membus.snoop_fanout::0                       0      0.00%      0.00% # Request fanout histogram
system.membus.snoop_fanout::1                    1247    100.00%    100.00% # Request fanout histogram
system.membus.snoop_fanout::2                       0      0.00%    100.00% # Request fanout histogram
system.membus.snoop_fanout::overflows               0      0.00%    100.00% # Request fanout histogram
system.membus.snoop_fanout::min_value               1                       # Request fanout histogram
system.membus.snoop_fanout::max_value               1                       # Request fanout histogram
system.membus.snoop_fanout::total                1247                       # Request fanout histogram
system.membus.reqLayer0.occupancy              873500                       # Layer occupancy (ticks)
system.membus.reqLayer0.utilization               0.0                       # Layer utilization (%)
system.membus.respLayer1.occupancy            1924000                       # Layer occupancy (ticks)
system.membus.respLayer1.utilization              0.1                       # Layer utilization (%)
system.membus.respLayer2.occupancy            1092250                       # Layer occupancy (ticks)
system.membus.respLayer2.utilization              0.0                       # Layer utilization (%)

---------- End Simulation Statistics   ----------
