
---------- Begin Simulation Statistics ----------
sim_seconds                                  0.002845                       # Number of seconds simulated
sim_ticks                                  2844801000                       # Number of ticks simulated
final_tick                                 2844801000                       # Number of ticks from beginning of simulation (restored from checkpoints and never reset)
sim_freq                                 1000000000000                       # Frequency of simulated ticks
host_inst_rate                                 233953                       # Simulator instruction rate (inst/s)
host_op_rate                                   276420                       # Simulator op (including micro ops) rate (op/s)
host_tick_rate                               66555022                       # Simulator tick rate (ticks/s)
host_mem_usage                                 655584                       # Number of bytes of host memory used
host_seconds                                    42.74                       # Real time elapsed on the host
sim_insts                                    10000004                       # Number of instructions simulated
sim_ops                                      11815191                       # Number of ops (including micro ops) simulated
system.voltage_domain.voltage                       1                       # Voltage in Volts
system.clk_domain.clock                           500                       # Clock period in ticks
system.mem_ctrls.bytes_read::cpu.inst           38336                       # Number of bytes read from this memory
system.mem_ctrls.bytes_read::cpu.data           26688                       # Number of bytes read from this memory
system.mem_ctrls.bytes_read::total              65024                       # Number of bytes read from this memory
system.mem_ctrls.bytes_inst_read::cpu.inst        38336                       # Number of instructions bytes read from this memory
system.mem_ctrls.bytes_inst_read::total         38336                       # Number of instructions bytes read from this memory
system.mem_ctrls.bytes_written::writebacks         8128                       # Number of bytes written to this memory
system.mem_ctrls.bytes_written::total            8128                       # Number of bytes written to this memory
system.mem_ctrls.num_reads::cpu.inst              599                       # Number of read requests responded to by this memory
system.mem_ctrls.num_reads::cpu.data              417                       # Number of read requests responded to by this memory
system.mem_ctrls.num_reads::total                1016                       # Number of read requests responded to by this memory
system.mem_ctrls.num_writes::writebacks           127                       # Number of write requests responded to by this memory
system.mem_ctrls.num_writes::total                127                       # Number of write requests responded to by this memory
system.mem_ctrls.bw_read::cpu.inst           13475811                       # Total read bandwidth from this memory (bytes/s)
system.mem_ctrls.bw_read::cpu.data            9381324                       # Total read bandwidth from this memory (bytes/s)
system.mem_ctrls.bw_read::total              22857135                       # Total read bandwidth from this memory (bytes/s)
system.mem_ctrls.bw_inst_read::cpu.inst      13475811                       # Instruction read bandwidth from this memory (bytes/s)
system.mem_ctrls.bw_inst_read::total         13475811                       # Instruction read bandwidth from this memory (bytes/s)
system.mem_ctrls.bw_write::writebacks         2857142                       # Write bandwidth from this memory (bytes/s)
system.mem_ctrls.bw_write::total              2857142                       # Write bandwidth from this memory (bytes/s)
system.mem_ctrls.bw_total::writebacks         2857142                       # Total bandwidth to/from this memory (bytes/s)
system.mem_ctrls.bw_total::cpu.inst          13475811                       # Total bandwidth to/from this memory (bytes/s)
system.mem_ctrls.bw_total::cpu.data           9381324                       # Total bandwidth to/from this memory (bytes/s)
system.mem_ctrls.bw_total::total             25714277                       # Total bandwidth to/from this memory (bytes/s)
system.mem_ctrls.readReqs                        1016                       # Number of read requests accepted
system.mem_ctrls.writeReqs                        127                       # Number of write requests accepted
system.mem_ctrls.readBursts                      1016                       # Number of DRAM read bursts, including those serviced by the write queue
system.mem_ctrls.writeBursts                      127                       # Number of DRAM write bursts, including those merged in the write queue
system.mem_ctrls.bytesReadDRAM                  62848                       # Total number of bytes read from DRAM
system.mem_ctrls.bytesReadWrQ                    2176                       # Total number of bytes read from write queue
system.mem_ctrls.bytesWritten                    5632                       # Total number of bytes written to DRAM
system.mem_ctrls.bytesReadSys                   65024                       # Total read bytes from the system interface side
system.mem_ctrls.bytesWrittenSys                 8128                       # Total written bytes from the system interface side
system.mem_ctrls.servicedByWrQ                     34                       # Number of DRAM read bursts serviced by the write queue
system.mem_ctrls.mergedWrBursts                    13                       # Number of DRAM write bursts merged with an existing one
system.mem_ctrls.neitherReadNorWriteReqs            0                       # Number of requests that are neither read nor write
system.mem_ctrls.perBankRdBursts::0               109                       # Per bank write bursts
system.mem_ctrls.perBankRdBursts::1                82                       # Per bank write bursts
system.mem_ctrls.perBankRdBursts::2                19                       # Per bank write bursts
system.mem_ctrls.perBankRdBursts::3                77                       # Per bank write bursts
system.mem_ctrls.perBankRdBursts::4               159                       # Per bank write bursts
system.mem_ctrls.perBankRdBursts::5                47                       # Per bank write bursts
system.mem_ctrls.perBankRdBursts::6                54                       # Per bank write bursts
system.mem_ctrls.perBankRdBursts::7                41                       # Per bank write bursts
system.mem_ctrls.perBankRdBursts::8                40                       # Per bank write bursts
system.mem_ctrls.perBankRdBursts::9                53                       # Per bank write bursts
system.mem_ctrls.perBankRdBursts::10               64                       # Per bank write bursts
system.mem_ctrls.perBankRdBursts::11               20                       # Per bank write bursts
system.mem_ctrls.perBankRdBursts::12               49                       # Per bank write bursts
system.mem_ctrls.perBankRdBursts::13               38                       # Per bank write bursts
system.mem_ctrls.perBankRdBursts::14               27                       # Per bank write bursts
system.mem_ctrls.perBankRdBursts::15              103                       # Per bank write bursts
system.mem_ctrls.perBankWrBursts::0                18                       # Per bank write bursts
system.mem_ctrls.perBankWrBursts::1                 6                       # Per bank write bursts
system.mem_ctrls.perBankWrBursts::2                 6                       # Per bank write bursts
system.mem_ctrls.perBankWrBursts::3                10                       # Per bank write bursts
system.mem_ctrls.perBankWrBursts::4                 4                       # Per bank write bursts
system.mem_ctrls.perBankWrBursts::5                 0                       # Per bank write bursts
system.mem_ctrls.perBankWrBursts::6                 0                       # Per bank write bursts
system.mem_ctrls.perBankWrBursts::7                 0                       # Per bank write bursts
system.mem_ctrls.perBankWrBursts::8                 0                       # Per bank write bursts
system.mem_ctrls.perBankWrBursts::9                 0                       # Per bank write bursts
system.mem_ctrls.perBankWrBursts::10                0                       # Per bank write bursts
system.mem_ctrls.perBankWrBursts::11                0                       # Per bank write bursts
system.mem_ctrls.perBankWrBursts::12                0                       # Per bank write bursts
system.mem_ctrls.perBankWrBursts::13                0                       # Per bank write bursts
system.mem_ctrls.perBankWrBursts::14                2                       # Per bank write bursts
system.mem_ctrls.perBankWrBursts::15               42                       # Per bank write bursts
system.mem_ctrls.numRdRetry                         0                       # Number of times read queue was full causing retry
system.mem_ctrls.numWrRetry                         0                       # Number of times write queue was full causing retry
system.mem_ctrls.totGap                    2829555000                       # Total gap between requests
system.mem_ctrls.readPktSize::0                     0                       # Read request sizes (log2)
system.mem_ctrls.readPktSize::1                     0                       # Read request sizes (log2)
system.mem_ctrls.readPktSize::2                     0                       # Read request sizes (log2)
system.mem_ctrls.readPktSize::3                     0                       # Read request sizes (log2)
system.mem_ctrls.readPktSize::4                     0                       # Read request sizes (log2)
system.mem_ctrls.readPktSize::5                     0                       # Read request sizes (log2)
system.mem_ctrls.readPktSize::6                  1016                       # Read request sizes (log2)
system.mem_ctrls.writePktSize::0                    0                       # Write request sizes (log2)
system.mem_ctrls.writePktSize::1                    0                       # Write request sizes (log2)
system.mem_ctrls.writePktSize::2                    0                       # Write request sizes (log2)
system.mem_ctrls.writePktSize::3                    0                       # Write request sizes (log2)
system.mem_ctrls.writePktSize::4                    0                       # Write request sizes (log2)
system.mem_ctrls.writePktSize::5                    0                       # Write request sizes (log2)
system.mem_ctrls.writePktSize::6                  127                       # Write request sizes (log2)
system.mem_ctrls.rdQLenPdf::0                     570                       # What read queue length does an incoming req see
system.mem_ctrls.rdQLenPdf::1                     261                       # What read queue length does an incoming req see
system.mem_ctrls.rdQLenPdf::2                     103                       # What read queue length does an incoming req see
system.mem_ctrls.rdQLenPdf::3                      40                       # What read queue length does an incoming req see
system.mem_ctrls.rdQLenPdf::4                       8                       # What read queue length does an incoming req see
system.mem_ctrls.rdQLenPdf::5                       0                       # What read queue length does an incoming req see
system.mem_ctrls.rdQLenPdf::6                       0                       # What read queue length does an incoming req see
system.mem_ctrls.rdQLenPdf::7                       0                       # What read queue length does an incoming req see
system.mem_ctrls.rdQLenPdf::8                       0                       # What read queue length does an incoming req see
system.mem_ctrls.rdQLenPdf::9                       0                       # What read queue length does an incoming req see
system.mem_ctrls.rdQLenPdf::10                      0                       # What read queue length does an incoming req see
system.mem_ctrls.rdQLenPdf::11                      0                       # What read queue length does an incoming req see
system.mem_ctrls.rdQLenPdf::12                      0                       # What read queue length does an incoming req see
system.mem_ctrls.rdQLenPdf::13                      0                       # What read queue length does an incoming req see
system.mem_ctrls.rdQLenPdf::14                      0                       # What read queue length does an incoming req see
system.mem_ctrls.rdQLenPdf::15                      0                       # What read queue length does an incoming req see
system.mem_ctrls.rdQLenPdf::16                      0                       # What read queue length does an incoming req see
system.mem_ctrls.rdQLenPdf::17                      0                       # What read queue length does an incoming req see
system.mem_ctrls.rdQLenPdf::18                      0                       # What read queue length does an incoming req see
system.mem_ctrls.rdQLenPdf::19                      0                       # What read queue length does an incoming req see
system.mem_ctrls.rdQLenPdf::20                      0                       # What read queue length does an incoming req see
system.mem_ctrls.rdQLenPdf::21                      0                       # What read queue length does an incoming req see
system.mem_ctrls.rdQLenPdf::22                      0                       # What read queue length does an incoming req see
system.mem_ctrls.rdQLenPdf::23                      0                       # What read queue length does an incoming req see
system.mem_ctrls.rdQLenPdf::24                      0                       # What read queue length does an incoming req see
system.mem_ctrls.rdQLenPdf::25                      0                       # What read queue length does an incoming req see
system.mem_ctrls.rdQLenPdf::26                      0                       # What read queue length does an incoming req see
system.mem_ctrls.rdQLenPdf::27                      0                       # What read queue length does an incoming req see
system.mem_ctrls.rdQLenPdf::28                      0                       # What read queue length does an incoming req see
system.mem_ctrls.rdQLenPdf::29                      0                       # What read queue length does an incoming req see
system.mem_ctrls.rdQLenPdf::30                      0                       # What read queue length does an incoming req see
system.mem_ctrls.rdQLenPdf::31                      0                       # What read queue length does an incoming req see
system.mem_ctrls.wrQLenPdf::0                       1                       # What write queue length does an incoming req see
system.mem_ctrls.wrQLenPdf::1                       1                       # What write queue length does an incoming req see
system.mem_ctrls.wrQLenPdf::2                       1                       # What write queue length does an incoming req see
system.mem_ctrls.wrQLenPdf::3                       1                       # What write queue length does an incoming req see
system.mem_ctrls.wrQLenPdf::4                       1                       # What write queue length does an incoming req see
system.mem_ctrls.wrQLenPdf::5                       1                       # What write queue length does an incoming req see
system.mem_ctrls.wrQLenPdf::6                       1                       # What write queue length does an incoming req see
system.mem_ctrls.wrQLenPdf::7                       1                       # What write queue length does an incoming req see
system.mem_ctrls.wrQLenPdf::8                       1                       # What write queue length does an incoming req see
system.mem_ctrls.wrQLenPdf::9                       1                       # What write queue length does an incoming req see
system.mem_ctrls.wrQLenPdf::10                      1                       # What write queue length does an incoming req see
system.mem_ctrls.wrQLenPdf::11                      1                       # What write queue length does an incoming req see
system.mem_ctrls.wrQLenPdf::12                      1                       # What write queue length does an incoming req see
system.mem_ctrls.wrQLenPdf::13                      1                       # What write queue length does an incoming req see
system.mem_ctrls.wrQLenPdf::14                      1                       # What write queue length does an incoming req see
system.mem_ctrls.wrQLenPdf::15                      5                       # What write queue length does an incoming req see
system.mem_ctrls.wrQLenPdf::16                      5                       # What write queue length does an incoming req see
system.mem_ctrls.wrQLenPdf::17                      6                       # What write queue length does an incoming req see
system.mem_ctrls.wrQLenPdf::18                      6                       # What write queue length does an incoming req see
system.mem_ctrls.wrQLenPdf::19                      6                       # What write queue length does an incoming req see
system.mem_ctrls.wrQLenPdf::20                      6                       # What write queue length does an incoming req see
system.mem_ctrls.wrQLenPdf::21                      6                       # What write queue length does an incoming req see
system.mem_ctrls.wrQLenPdf::22                      6                       # What write queue length does an incoming req see
system.mem_ctrls.wrQLenPdf::23                      6                       # What write queue length does an incoming req see
system.mem_ctrls.wrQLenPdf::24                      6                       # What write queue length does an incoming req see
system.mem_ctrls.wrQLenPdf::25                      6                       # What write queue length does an incoming req see
system.mem_ctrls.wrQLenPdf::26                      5                       # What write queue length does an incoming req see
system.mem_ctrls.wrQLenPdf::27                      5                       # What write queue length does an incoming req see
system.mem_ctrls.wrQLenPdf::28                      5                       # What write queue length does an incoming req see
system.mem_ctrls.wrQLenPdf::29                      5                       # What write queue length does an incoming req see
system.mem_ctrls.wrQLenPdf::30                      5                       # What write queue length does an incoming req see
system.mem_ctrls.wrQLenPdf::31                      5                       # What write queue length does an incoming req see
system.mem_ctrls.wrQLenPdf::32                      5                       # What write queue length does an incoming req see
system.mem_ctrls.wrQLenPdf::33                      0                       # What write queue length does an incoming req see
system.mem_ctrls.wrQLenPdf::34                      0                       # What write queue length does an incoming req see
system.mem_ctrls.wrQLenPdf::35                      0                       # What write queue length does an incoming req see
system.mem_ctrls.wrQLenPdf::36                      0                       # What write queue length does an incoming req see
system.mem_ctrls.wrQLenPdf::37                      0                       # What write queue length does an incoming req see
system.mem_ctrls.wrQLenPdf::38                      0                       # What write queue length does an incoming req see
system.mem_ctrls.wrQLenPdf::39                      0                       # What write queue length does an incoming req see
system.mem_ctrls.wrQLenPdf::40                      0                       # What write queue length does an incoming req see
system.mem_ctrls.wrQLenPdf::41                      0                       # What write queue length does an incoming req see
system.mem_ctrls.wrQLenPdf::42                      0                       # What write queue length does an incoming req see
system.mem_ctrls.wrQLenPdf::43                      0                       # What write queue length does an incoming req see
system.mem_ctrls.wrQLenPdf::44                      0                       # What write queue length does an incoming req see
system.mem_ctrls.wrQLenPdf::45                      0                       # What write queue length does an incoming req see
system.mem_ctrls.wrQLenPdf::46                      0                       # What write queue length does an incoming req see
system.mem_ctrls.wrQLenPdf::47                      0                       # What write queue length does an incoming req see
system.mem_ctrls.wrQLenPdf::48                      0                       # What write queue length does an incoming req see
system.mem_ctrls.wrQLenPdf::49                      0                       # What write queue length does an incoming req see
system.mem_ctrls.wrQLenPdf::50                      0                       # What write queue length does an incoming req see
system.mem_ctrls.wrQLenPdf::51                      0                       # What write queue length does an incoming req see
system.mem_ctrls.wrQLenPdf::52                      0                       # What write queue length does an incoming req see
system.mem_ctrls.wrQLenPdf::53                      0                       # What write queue length does an incoming req see
system.mem_ctrls.wrQLenPdf::54                      0                       # What write queue length does an incoming req see
system.mem_ctrls.wrQLenPdf::55                      0                       # What write queue length does an incoming req see
system.mem_ctrls.wrQLenPdf::56                      0                       # What write queue length does an incoming req see
system.mem_ctrls.wrQLenPdf::57                      0                       # What write queue length does an incoming req see
system.mem_ctrls.wrQLenPdf::58                      0                       # What write queue length does an incoming req see
system.mem_ctrls.wrQLenPdf::59                      0                       # What write queue length does an incoming req see
system.mem_ctrls.wrQLenPdf::60                      0                       # What write queue length does an incoming req see
system.mem_ctrls.wrQLenPdf::61                      0                       # What write queue length does an incoming req see
system.mem_ctrls.wrQLenPdf::62                      0                       # What write queue length does an incoming req see
system.mem_ctrls.wrQLenPdf::63                      0                       # What write queue length does an incoming req see
system.mem_ctrls.bytesPerActivate::samples          349                       # Bytes accessed per row activation
system.mem_ctrls.bytesPerActivate::mean    196.217765                       # Bytes accessed per row activation
system.mem_ctrls.bytesPerActivate::gmean   116.757715                       # Bytes accessed per row activation
system.mem_ctrls.bytesPerActivate::stdev   257.683756                       # Bytes accessed per row activation
system.mem_ctrls.bytesPerActivate::0-127          216     61.89%     61.89% # Bytes accessed per row activation
system.mem_ctrls.bytesPerActivate::128-255           55     15.76%     77.65% # Bytes accessed per row activation
system.mem_ctrls.bytesPerActivate::256-383           26      7.45%     85.10% # Bytes accessed per row activation
system.mem_ctrls.bytesPerActivate::384-511           10      2.87%     87.97% # Bytes accessed per row activation
system.mem_ctrls.bytesPerActivate::512-639            9      2.58%     90.54% # Bytes accessed per row activation
system.mem_ctrls.bytesPerActivate::640-767            7      2.01%     92.55% # Bytes accessed per row activation
system.mem_ctrls.bytesPerActivate::768-895            4      1.15%     93.70% # Bytes accessed per row activation
system.mem_ctrls.bytesPerActivate::896-1023            4      1.15%     94.84% # Bytes accessed per row activation
system.mem_ctrls.bytesPerActivate::1024-1151           18      5.16%    100.00% # Bytes accessed per row activation
system.mem_ctrls.bytesPerActivate::total          349                       # Bytes accessed per row activation
system.mem_ctrls.rdPerTurnAround::samples            5                       # Reads before turning the bus around for writes
system.mem_ctrls.rdPerTurnAround::mean     194.200000                       # Reads before turning the bus around for writes
system.mem_ctrls.rdPerTurnAround::gmean    102.850572                       # Reads before turning the bus around for writes
system.mem_ctrls.rdPerTurnAround::stdev    224.725833                       # Reads before turning the bus around for writes
system.mem_ctrls.rdPerTurnAround::0-31              1     20.00%     20.00% # Reads before turning the bus around for writes
system.mem_ctrls.rdPerTurnAround::32-63             1     20.00%     40.00% # Reads before turning the bus around for writes
system.mem_ctrls.rdPerTurnAround::64-95             1     20.00%     60.00% # Reads before turning the bus around for writes
system.mem_ctrls.rdPerTurnAround::288-319            1     20.00%     80.00% # Reads before turning the bus around for writes
system.mem_ctrls.rdPerTurnAround::544-575            1     20.00%    100.00% # Reads before turning the bus around for writes
system.mem_ctrls.rdPerTurnAround::total             5                       # Reads before turning the bus around for writes
system.mem_ctrls.wrPerTurnAround::samples            5                       # Writes before turning the bus around for reads
system.mem_ctrls.wrPerTurnAround::mean      17.600000                       # Writes before turning the bus around for reads
system.mem_ctrls.wrPerTurnAround::gmean     17.580936                       # Writes before turning the bus around for reads
system.mem_ctrls.wrPerTurnAround::stdev      0.894427                       # Writes before turning the bus around for reads
system.mem_ctrls.wrPerTurnAround::16                1     20.00%     20.00% # Writes before turning the bus around for reads
system.mem_ctrls.wrPerTurnAround::18                4     80.00%    100.00% # Writes before turning the bus around for reads
system.mem_ctrls.wrPerTurnAround::total             5                       # Writes before turning the bus around for reads
system.mem_ctrls.totQLat                     11494750                       # Total ticks spent queuing
system.mem_ctrls.totMemAccLat                29907250                       # Total ticks spent from burst creation until serviced by the DRAM
system.mem_ctrls.totBusLat                    4910000                       # Total ticks spent in databus transfers
system.mem_ctrls.avgQLat                     11705.45                       # Average queueing delay per DRAM burst
system.mem_ctrls.avgBusLat                    5000.00                       # Average bus latency per DRAM burst
system.mem_ctrls.avgMemAccLat                30455.45                       # Average memory access latency per DRAM burst
system.mem_ctrls.avgRdBW                        22.09                       # Average DRAM read bandwidth in MiByte/s
system.mem_ctrls.avgWrBW                         1.98                       # Average achieved write bandwidth in MiByte/s
system.mem_ctrls.avgRdBWSys                     22.86                       # Average system read bandwidth in MiByte/s
system.mem_ctrls.avgWrBWSys                      2.86                       # Average system write bandwidth in MiByte/s
system.mem_ctrls.peakBW                      12800.00                       # Theoretical peak bandwidth in MiByte/s
system.mem_ctrls.busUtil                         0.19                       # Data bus utilization in percentage
system.mem_ctrls.busUtilRead                     0.17                       # Data bus utilization in percentage for reads
system.mem_ctrls.busUtilWrite                    0.02                       # Data bus utilization in percentage for writes
system.mem_ctrls.avgRdQLen                       1.01                       # Average read queue length when enqueuing
system.mem_ctrls.avgWrQLen                      24.90                       # Average write queue length when enqueuing
system.mem_ctrls.readRowHits                      649                       # Number of row buffer hits during reads
system.mem_ctrls.writeRowHits                      72                       # Number of row buffer hits during writes
system.mem_ctrls.readRowHitRate                 66.09                       # Row buffer hit rate for reads
system.mem_ctrls.writeRowHitRate                63.16                       # Row buffer hit rate for writes
system.mem_ctrls.avgGap                    2475551.18                       # Average gap between requests
system.mem_ctrls.pageHitRate                    65.78                       # Row buffer hit rate, read and write combined
system.mem_ctrls_0.actEnergy                  2026080                       # Energy for activate commands per rank (pJ)
system.mem_ctrls_0.preEnergy                  1105500                       # Energy for precharge commands per rank (pJ)
system.mem_ctrls_0.readEnergy                 4586400                       # Energy for read commands per rank (pJ)
system.mem_ctrls_0.writeEnergy                 285120                       # Energy for write commands per rank (pJ)
system.mem_ctrls_0.refreshEnergy            185624400                       # Energy for refresh commands per rank (pJ)
system.mem_ctrls_0.actBackEnergy            469859265                       # Energy for active background per rank (pJ)
system.mem_ctrls_0.preBackEnergy           1293179250                       # Energy for precharge background per rank (pJ)
system.mem_ctrls_0.totalEnergy             1956666015                       # Total energy per rank (pJ)
system.mem_ctrls_0.averagePower            688.426952                       # Core power per rank (mW)
system.mem_ctrls_0.memoryStateTime::IDLE   2148128750                       # Time in different power states
system.mem_ctrls_0.memoryStateTime::REF      94900000                       # Time in different power states
system.mem_ctrls_0.memoryStateTime::PRE_PDN            0                       # Time in different power states
system.mem_ctrls_0.memoryStateTime::ACT     599212500                       # Time in different power states
system.mem_ctrls_0.memoryStateTime::ACT_PDN            0                       # Time in different power states
system.mem_ctrls_1.actEnergy                   612360                       # Energy for activate commands per rank (pJ)
system.mem_ctrls_1.preEnergy                   334125                       # Energy for precharge commands per rank (pJ)
system.mem_ctrls_1.readEnergy                 3073200                       # Energy for read commands per rank (pJ)
system.mem_ctrls_1.writeEnergy                 285120                       # Energy for write commands per rank (pJ)
system.mem_ctrls_1.refreshEnergy            185624400                       # Energy for refresh commands per rank (pJ)
system.mem_ctrls_1.actBackEnergy             86707260                       # Energy for active background per rank (pJ)
system.mem_ctrls_1.preBackEnergy           1629277500                       # Energy for precharge background per rank (pJ)
system.mem_ctrls_1.totalEnergy             1905913965                       # Total energy per rank (pJ)
system.mem_ctrls_1.averagePower            670.570517                       # Core power per rank (mW)
system.mem_ctrls_1.memoryStateTime::IDLE   2710358500                       # Time in different power states
system.mem_ctrls_1.memoryStateTime::REF      94900000                       # Time in different power states
system.mem_ctrls_1.memoryStateTime::PRE_PDN            0                       # Time in different power states
system.mem_ctrls_1.memoryStateTime::ACT      36982750                       # Time in different power states
system.mem_ctrls_1.memoryStateTime::ACT_PDN            0                       # Time in different power states
system.cpu.branchPred.lookups                 2551389                       # Number of BP lookups
system.cpu.branchPred.condPredicted           1805694                       # Number of conditional branches predicted
system.cpu.branchPred.condIncorrect             76777                       # Number of conditional branches incorrect
system.cpu.branchPred.BTBLookups              1086962                       # Number of BTB lookups
system.cpu.branchPred.BTBHits                 1082900                       # Number of BTB hits
system.cpu.branchPred.BTBCorrect                    0                       # Number of correct BTB predictions (this stat may not work properly.
system.cpu.branchPred.BTBHitPct             99.626298                       # BTB Hit Percentage
system.cpu.branchPred.usedRAS                  414377                       # Number of times the RAS was used to get a target.
system.cpu.branchPred.RASInCorrect              14190                       # Number of incorrect RAS predictions.
system.cpu_voltage_domain.voltage                   1                       # Voltage in Volts
system.cpu_clk_domain.clock                       500                       # Clock period in ticks
system.cpu.dstage2_mmu.stage2_tlb.walker.walks            0                       # Table walker walks requested
system.cpu.dstage2_mmu.stage2_tlb.walker.walkRequestOrigin_Requested::Data            0                       # Table walker requests started/completed, data/inst
system.cpu.dstage2_mmu.stage2_tlb.walker.walkRequestOrigin_Requested::Inst            0                       # Table walker requests started/completed, data/inst
system.cpu.dstage2_mmu.stage2_tlb.walker.walkRequestOrigin_Requested::total            0                       # Table walker requests started/completed, data/inst
system.cpu.dstage2_mmu.stage2_tlb.walker.walkRequestOrigin_Completed::Data            0                       # Table walker requests started/completed, data/inst
system.cpu.dstage2_mmu.stage2_tlb.walker.walkRequestOrigin_Completed::Inst            0                       # Table walker requests started/completed, data/inst
system.cpu.dstage2_mmu.stage2_tlb.walker.walkRequestOrigin_Completed::total            0                       # Table walker requests started/completed, data/inst
system.cpu.dstage2_mmu.stage2_tlb.walker.walkRequestOrigin::total            0                       # Table walker requests started/completed, data/inst
system.cpu.dstage2_mmu.stage2_tlb.inst_hits            0                       # ITB inst hits
system.cpu.dstage2_mmu.stage2_tlb.inst_misses            0                       # ITB inst misses
system.cpu.dstage2_mmu.stage2_tlb.read_hits            0                       # DTB read hits
system.cpu.dstage2_mmu.stage2_tlb.read_misses            0                       # DTB read misses
system.cpu.dstage2_mmu.stage2_tlb.write_hits            0                       # DTB write hits
system.cpu.dstage2_mmu.stage2_tlb.write_misses            0                       # DTB write misses
system.cpu.dstage2_mmu.stage2_tlb.flush_tlb            0                       # Number of times complete TLB was flushed
system.cpu.dstage2_mmu.stage2_tlb.flush_tlb_mva            0                       # Number of times TLB was flushed by MVA
system.cpu.dstage2_mmu.stage2_tlb.flush_tlb_mva_asid            0                       # Number of times TLB was flushed by MVA & ASID
system.cpu.dstage2_mmu.stage2_tlb.flush_tlb_asid            0                       # Number of times TLB was flushed by ASID
system.cpu.dstage2_mmu.stage2_tlb.flush_entries            0                       # Number of entries that have been flushed from TLB
system.cpu.dstage2_mmu.stage2_tlb.align_faults            0                       # Number of TLB faults due to alignment restrictions
system.cpu.dstage2_mmu.stage2_tlb.prefetch_faults            0                       # Number of TLB faults due to prefetch
system.cpu.dstage2_mmu.stage2_tlb.domain_faults            0                       # Number of TLB faults due to domain restrictions
system.cpu.dstage2_mmu.stage2_tlb.perms_faults            0                       # Number of TLB faults due to permissions restrictions
system.cpu.dstage2_mmu.stage2_tlb.read_accesses            0                       # DTB read accesses
system.cpu.dstage2_mmu.stage2_tlb.write_accesses            0                       # DTB write accesses
system.cpu.dstage2_mmu.stage2_tlb.inst_accesses            0                       # ITB inst accesses
system.cpu.dstage2_mmu.stage2_tlb.hits              0                       # DTB hits
system.cpu.dstage2_mmu.stage2_tlb.misses            0                       # DTB misses
system.cpu.dstage2_mmu.stage2_tlb.accesses            0                       # DTB accesses
system.cpu.dtb.walker.walks                         0                       # Table walker walks requested
system.cpu.dtb.walker.walkRequestOrigin_Requested::Data            0                       # Table walker requests started/completed, data/inst
system.cpu.dtb.walker.walkRequestOrigin_Requested::Inst            0                       # Table walker requests started/completed, data/inst
system.cpu.dtb.walker.walkRequestOrigin_Requested::total            0                       # Table walker requests started/completed, data/inst
system.cpu.dtb.walker.walkRequestOrigin_Completed::Data            0                       # Table walker requests started/completed, data/inst
system.cpu.dtb.walker.walkRequestOrigin_Completed::Inst            0                       # Table walker requests started/completed, data/inst
system.cpu.dtb.walker.walkRequestOrigin_Completed::total            0                       # Table walker requests started/completed, data/inst
system.cpu.dtb.walker.walkRequestOrigin::total            0                       # Table walker requests started/completed, data/inst
system.cpu.dtb.inst_hits                            0                       # ITB inst hits
system.cpu.dtb.inst_misses                          0                       # ITB inst misses
system.cpu.dtb.read_hits                            0                       # DTB read hits
system.cpu.dtb.read_misses                          0                       # DTB read misses
system.cpu.dtb.write_hits                           0                       # DTB write hits
system.cpu.dtb.write_misses                         0                       # DTB write misses
system.cpu.dtb.flush_tlb                            0                       # Number of times complete TLB was flushed
system.cpu.dtb.flush_tlb_mva                        0                       # Number of times TLB was flushed by MVA
system.cpu.dtb.flush_tlb_mva_asid                   0                       # Number of times TLB was flushed by MVA & ASID
system.cpu.dtb.flush_tlb_asid                       0                       # Number of times TLB was flushed by ASID
system.cpu.dtb.flush_entries                        0                       # Number of entries that have been flushed from TLB
system.cpu.dtb.align_faults                         0                       # Number of TLB faults due to alignment restrictions
system.cpu.dtb.prefetch_faults                      0                       # Number of TLB faults due to prefetch
system.cpu.dtb.domain_faults                        0                       # Number of TLB faults due to domain restrictions
system.cpu.dtb.perms_faults                         0                       # Number of TLB faults due to permissions restrictions
system.cpu.dtb.read_accesses                        0                       # DTB read accesses
system.cpu.dtb.write_accesses                       0                       # DTB write accesses
system.cpu.dtb.inst_accesses                        0                       # ITB inst accesses
system.cpu.dtb.hits                                 0                       # DTB hits
system.cpu.dtb.misses                               0                       # DTB misses
system.cpu.dtb.accesses                             0                       # DTB accesses
system.cpu.istage2_mmu.stage2_tlb.walker.walks            0                       # Table walker walks requested
system.cpu.istage2_mmu.stage2_tlb.walker.walkRequestOrigin_Requested::Data            0                       # Table walker requests started/completed, data/inst
system.cpu.istage2_mmu.stage2_tlb.walker.walkRequestOrigin_Requested::Inst            0                       # Table walker requests started/completed, data/inst
system.cpu.istage2_mmu.stage2_tlb.walker.walkRequestOrigin_Requested::total            0                       # Table walker requests started/completed, data/inst
system.cpu.istage2_mmu.stage2_tlb.walker.walkRequestOrigin_Completed::Data            0                       # Table walker requests started/completed, data/inst
system.cpu.istage2_mmu.stage2_tlb.walker.walkRequestOrigin_Completed::Inst            0                       # Table walker requests started/completed, data/inst
system.cpu.istage2_mmu.stage2_tlb.walker.walkRequestOrigin_Completed::total            0                       # Table walker requests started/completed, data/inst
system.cpu.istage2_mmu.stage2_tlb.walker.walkRequestOrigin::total            0                       # Table walker requests started/completed, data/inst
system.cpu.istage2_mmu.stage2_tlb.inst_hits            0                       # ITB inst hits
system.cpu.istage2_mmu.stage2_tlb.inst_misses            0                       # ITB inst misses
system.cpu.istage2_mmu.stage2_tlb.read_hits            0                       # DTB read hits
system.cpu.istage2_mmu.stage2_tlb.read_misses            0                       # DTB read misses
system.cpu.istage2_mmu.stage2_tlb.write_hits            0                       # DTB write hits
system.cpu.istage2_mmu.stage2_tlb.write_misses            0                       # DTB write misses
system.cpu.istage2_mmu.stage2_tlb.flush_tlb            0                       # Number of times complete TLB was flushed
system.cpu.istage2_mmu.stage2_tlb.flush_tlb_mva            0                       # Number of times TLB was flushed by MVA
system.cpu.istage2_mmu.stage2_tlb.flush_tlb_mva_asid            0                       # Number of times TLB was flushed by MVA & ASID
system.cpu.istage2_mmu.stage2_tlb.flush_tlb_asid            0                       # Number of times TLB was flushed by ASID
system.cpu.istage2_mmu.stage2_tlb.flush_entries            0                       # Number of entries that have been flushed from TLB
system.cpu.istage2_mmu.stage2_tlb.align_faults            0                       # Number of TLB faults due to alignment restrictions
system.cpu.istage2_mmu.stage2_tlb.prefetch_faults            0                       # Number of TLB faults due to prefetch
system.cpu.istage2_mmu.stage2_tlb.domain_faults            0                       # Number of TLB faults due to domain restrictions
system.cpu.istage2_mmu.stage2_tlb.perms_faults            0                       # Number of TLB faults due to permissions restrictions
system.cpu.istage2_mmu.stage2_tlb.read_accesses            0                       # DTB read accesses
system.cpu.istage2_mmu.stage2_tlb.write_accesses            0                       # DTB write accesses
system.cpu.istage2_mmu.stage2_tlb.inst_accesses            0                       # ITB inst accesses
system.cpu.istage2_mmu.stage2_tlb.hits              0                       # DTB hits
system.cpu.istage2_mmu.stage2_tlb.misses            0                       # DTB misses
system.cpu.istage2_mmu.stage2_tlb.accesses            0                       # DTB accesses
system.cpu.itb.walker.walks                         0                       # Table walker walks requested
system.cpu.itb.walker.walkRequestOrigin_Requested::Data            0                       # Table walker requests started/completed, data/inst
system.cpu.itb.walker.walkRequestOrigin_Requested::Inst            0                       # Table walker requests started/completed, data/inst
system.cpu.itb.walker.walkRequestOrigin_Requested::total            0                       # Table walker requests started/completed, data/inst
system.cpu.itb.walker.walkRequestOrigin_Completed::Data            0                       # Table walker requests started/completed, data/inst
system.cpu.itb.walker.walkRequestOrigin_Completed::Inst            0                       # Table walker requests started/completed, data/inst
system.cpu.itb.walker.walkRequestOrigin_Completed::total            0                       # Table walker requests started/completed, data/inst
system.cpu.itb.walker.walkRequestOrigin::total            0                       # Table walker requests started/completed, data/inst
system.cpu.itb.inst_hits                            0                       # ITB inst hits
system.cpu.itb.inst_misses                          0                       # ITB inst misses
system.cpu.itb.read_hits                            0                       # DTB read hits
system.cpu.itb.read_misses                          0                       # DTB read misses
system.cpu.itb.write_hits                           0                       # DTB write hits
system.cpu.itb.write_misses                         0                       # DTB write misses
system.cpu.itb.flush_tlb                            0                       # Number of times complete TLB was flushed
system.cpu.itb.flush_tlb_mva                        0                       # Number of times TLB was flushed by MVA
system.cpu.itb.flush_tlb_mva_asid                   0                       # Number of times TLB was flushed by MVA & ASID
system.cpu.itb.flush_tlb_asid                       0                       # Number of times TLB was flushed by ASID
system.cpu.itb.flush_entries                        0                       # Number of entries that have been flushed from TLB
system.cpu.itb.align_faults                         0                       # Number of TLB faults due to alignment restrictions
system.cpu.itb.prefetch_faults                      0                       # Number of TLB faults due to prefetch
system.cpu.itb.domain_faults                        0                       # Number of TLB faults due to domain restrictions
system.cpu.itb.perms_faults                         0                       # Number of TLB faults due to permissions restrictions
system.cpu.itb.read_accesses                        0                       # DTB read accesses
system.cpu.itb.write_accesses                       0                       # DTB write accesses
system.cpu.itb.inst_accesses                        0                       # ITB inst accesses
system.cpu.itb.hits                                 0                       # DTB hits
system.cpu.itb.misses                               0                       # DTB misses
system.cpu.itb.accesses                             0                       # DTB accesses
system.cpu.workload.num_syscalls                   21                       # Number of system calls
system.cpu.numCycles                          5689603                       # number of cpu cycles simulated
system.cpu.numWorkItemsStarted                      0                       # number of work items this cpu started
system.cpu.numWorkItemsCompleted                    0                       # number of work items this cpu completed
system.cpu.fetch.icacheStallCycles            2210822                       # Number of cycles fetch is stalled on an Icache miss
system.cpu.fetch.Insts                       14053197                       # Number of instructions fetch has processed
system.cpu.fetch.Branches                     2551389                       # Number of branches that fetch encountered
system.cpu.fetch.predictedBranches            1497277                       # Number of branches that fetch has predicted taken
system.cpu.fetch.Cycles                       3375244                       # Number of cycles fetch has run and was not squashing or blocked
system.cpu.fetch.SquashCycles                  153698                       # Number of cycles fetch has spent squashing
system.cpu.fetch.MiscStallCycles                  115                       # Number of cycles fetch has spent waiting on interrupts, or bad addresses, or out of MSHRs
system.cpu.fetch.PendingTrapStallCycles           615                       # Number of stall cycles due to pending traps
system.cpu.fetch.IcacheWaitRetryStallCycles           27                       # Number of stall cycles due to full MSHR
system.cpu.fetch.CacheLines                   2156811                       # Number of cache lines fetched
system.cpu.fetch.IcacheSquashes                 33184                       # Number of outstanding Icache misses that were squashed
system.cpu.fetch.rateDist::samples            5663672                       # Number of instructions fetched each cycle (Total)
system.cpu.fetch.rateDist::mean              2.931697                       # Number of instructions fetched each cycle (Total)
system.cpu.fetch.rateDist::stdev             3.235773                       # Number of instructions fetched each cycle (Total)
system.cpu.fetch.rateDist::underflows               0      0.00%      0.00% # Number of instructions fetched each cycle (Total)
system.cpu.fetch.rateDist::0                  2385734     42.12%     42.12% # Number of instructions fetched each cycle (Total)
system.cpu.fetch.rateDist::1                   453636      8.01%     50.13% # Number of instructions fetched each cycle (Total)
system.cpu.fetch.rateDist::2                   370674      6.54%     56.68% # Number of instructions fetched each cycle (Total)
system.cpu.fetch.rateDist::3                   405937      7.17%     63.85% # Number of instructions fetched each cycle (Total)
system.cpu.fetch.rateDist::4                   231981      4.10%     67.94% # Number of instructions fetched each cycle (Total)
system.cpu.fetch.rateDist::5                   164028      2.90%     70.84% # Number of instructions fetched each cycle (Total)
system.cpu.fetch.rateDist::6                   210335      3.71%     74.55% # Number of instructions fetched each cycle (Total)
system.cpu.fetch.rateDist::7                   349474      6.17%     80.72% # Number of instructions fetched each cycle (Total)
system.cpu.fetch.rateDist::8                  1091873     19.28%    100.00% # Number of instructions fetched each cycle (Total)
system.cpu.fetch.rateDist::overflows                0      0.00%    100.00% # Number of instructions fetched each cycle (Total)
system.cpu.fetch.rateDist::min_value                0                       # Number of instructions fetched each cycle (Total)
system.cpu.fetch.rateDist::max_value                8                       # Number of instructions fetched each cycle (Total)
system.cpu.fetch.rateDist::total              5663672                       # Number of instructions fetched each cycle (Total)
system.cpu.fetch.branchRate                  0.448430                       # Number of branch fetches per cycle
system.cpu.fetch.rate                        2.469978                       # Number of inst fetches per cycle
system.cpu.decode.IdleCycles                  1596205                       # Number of cycles decode is idle
system.cpu.decode.BlockedCycles               1193282                       # Number of cycles decode is blocked
system.cpu.decode.RunCycles                   2400102                       # Number of cycles decode is running
system.cpu.decode.UnblockCycles                397564                       # Number of cycles decode is unblocking
system.cpu.decode.SquashCycles                  76519                       # Number of cycles decode is squashing
system.cpu.decode.BranchResolved               551862                       # Number of times decode resolved a branch
system.cpu.decode.BranchMispred                   348                       # Number of times decode detected a branch misprediction
system.cpu.decode.DecodedInsts               15922795                       # Number of instructions handled by decode
system.cpu.decode.SquashedInsts                  1239                       # Number of squashed instructions handled by decode
system.cpu.rename.SquashCycles                  76519                       # Number of cycles rename is squashing
system.cpu.rename.IdleCycles                  1779128                       # Number of cycles rename is idle
system.cpu.rename.BlockCycles                  406967                       # Number of cycles rename is blocking
system.cpu.rename.serializeStallCycles           5770                       # count of cycles rename stalled for serializing inst
system.cpu.rename.RunCycles                   2614394                       # Number of cycles rename is running
system.cpu.rename.UnblockCycles                780894                       # Number of cycles rename is unblocking
system.cpu.rename.RenamedInsts               15654691                       # Number of instructions processed by rename
system.cpu.rename.ROBFullEvents                    15                       # Number of times rename has blocked due to ROB full
system.cpu.rename.IQFullEvents                 711384                       # Number of times rename has blocked due to IQ full
system.cpu.rename.LQFullEvents                      7                       # Number of times rename has blocked due to LQ full
system.cpu.rename.SQFullEvents                   2931                       # Number of times rename has blocked due to SQ full
system.cpu.rename.RenamedOperands            21423378                       # Number of destination operands rename has renamed
system.cpu.rename.RenameLookups              75060734                       # Number of register rename lookups that rename has made
system.cpu.rename.int_rename_lookups         23025831                       # Number of integer rename lookups
system.cpu.rename.fp_rename_lookups                32                       # Number of floating rename lookups
system.cpu.rename.CommittedMaps              16214243                       # Number of HB maps that are committed
system.cpu.rename.UndoneMaps                  5209046                       # Number of HB maps that are undone due to squashing
system.cpu.rename.serializingInsts                112                       # count of serializing insts renamed
system.cpu.rename.tempSerializingInsts            112                       # count of temporary serializing insts renamed
system.cpu.rename.skidInsts                   1683221                       # count of insts added to the skid buffer
system.cpu.memDep0.insertedLoads               941262                       # Number of loads inserted to the mem dependence unit.
system.cpu.memDep0.insertedStores             1165803                       # Number of stores inserted to the mem dependence unit.
system.cpu.memDep0.conflictingLoads             43595                       # Number of conflicting loads.
system.cpu.memDep0.conflictingStores           690231                       # Number of conflicting stores.
system.cpu.iq.iqInstsAdded                   15198522                       # Number of instructions added to the IQ (excludes non-spec)
system.cpu.iq.iqNonSpecInstsAdded                 160                       # Number of non-speculative instructions added to the IQ
system.cpu.iq.iqInstsIssued                  13056537                       # Number of instructions issued
system.cpu.iq.iqSquashedInstsIssued              1377                       # Number of squashed instructions issued
system.cpu.iq.iqSquashedInstsExamined         3383431                       # Number of squashed instructions iterated over during squash; mainly for profiling
system.cpu.iq.iqSquashedOperandsExamined     11893260                       # Number of squashed operands that are examined and possibly removed from graph
system.cpu.iq.iqSquashedNonSpecRemoved             20                       # Number of squashed non-spec instructions that were removed
system.cpu.iq.issued_per_cycle::samples       5663672                       # Number of insts issued each cycle
system.cpu.iq.issued_per_cycle::mean         2.305313                       # Number of insts issued each cycle
system.cpu.iq.issued_per_cycle::stdev        1.856503                       # Number of insts issued each cycle
system.cpu.iq.issued_per_cycle::underflows            0      0.00%      0.00% # Number of insts issued each cycle
system.cpu.iq.issued_per_cycle::0              954547     16.85%     16.85% # Number of insts issued each cycle
system.cpu.iq.issued_per_cycle::1             1289261     22.76%     39.62% # Number of insts issued each cycle
system.cpu.iq.issued_per_cycle::2             1320180     23.31%     62.93% # Number of insts issued each cycle
system.cpu.iq.issued_per_cycle::3              587541     10.37%     73.30% # Number of insts issued each cycle
system.cpu.iq.issued_per_cycle::4              802630     14.17%     87.47% # Number of insts issued each cycle
system.cpu.iq.issued_per_cycle::5              302286      5.34%     92.81% # Number of insts issued each cycle
system.cpu.iq.issued_per_cycle::6              266163      4.70%     97.51% # Number of insts issued each cycle
system.cpu.iq.issued_per_cycle::7               83147      1.47%     98.98% # Number of insts issued each cycle
system.cpu.iq.issued_per_cycle::8               57917      1.02%    100.00% # Number of insts issued each cycle
system.cpu.iq.issued_per_cycle::overflows            0      0.00%    100.00% # Number of insts issued each cycle
system.cpu.iq.issued_per_cycle::min_value            0                       # Number of insts issued each cycle
system.cpu.iq.issued_per_cycle::max_value            8                       # Number of insts issued each cycle
system.cpu.iq.issued_per_cycle::total         5663672                       # Number of insts issued each cycle
system.cpu.iq.fu_full::No_OpClass                   0      0.00%      0.00% # attempts to use FU when none available
system.cpu.iq.fu_full::IntAlu                  126638     82.71%     82.71% # attempts to use FU when none available
system.cpu.iq.fu_full::IntMult                      0      0.00%     82.71% # attempts to use FU when none available
system.cpu.iq.fu_full::IntDiv                       0      0.00%     82.71% # attempts to use FU when none available
system.cpu.iq.fu_full::FloatAdd                     0      0.00%     82.71% # attempts to use FU when none available
system.cpu.iq.fu_full::FloatCmp                     0      0.00%     82.71% # attempts to use FU when none available
system.cpu.iq.fu_full::FloatCvt                     0      0.00%     82.71% # attempts to use FU when none available
system.cpu.iq.fu_full::FloatMult                    0      0.00%     82.71% # attempts to use FU when none available
system.cpu.iq.fu_full::FloatDiv                     0      0.00%     82.71% # attempts to use FU when none available
system.cpu.iq.fu_full::FloatSqrt                    0      0.00%     82.71% # attempts to use FU when none available
system.cpu.iq.fu_full::SimdAdd                      0      0.00%     82.71% # attempts to use FU when none available
system.cpu.iq.fu_full::SimdAddAcc                   0      0.00%     82.71% # attempts to use FU when none available
system.cpu.iq.fu_full::SimdAlu                      0      0.00%     82.71% # attempts to use FU when none available
system.cpu.iq.fu_full::SimdCmp                      0      0.00%     82.71% # attempts to use FU when none available
system.cpu.iq.fu_full::SimdCvt                      0      0.00%     82.71% # attempts to use FU when none available
system.cpu.iq.fu_full::SimdMisc                     0      0.00%     82.71% # attempts to use FU when none available
system.cpu.iq.fu_full::SimdMult                     0      0.00%     82.71% # attempts to use FU when none available
system.cpu.iq.fu_full::SimdMultAcc                  0      0.00%     82.71% # attempts to use FU when none available
system.cpu.iq.fu_full::SimdShift                    0      0.00%     82.71% # attempts to use FU when none available
system.cpu.iq.fu_full::SimdShiftAcc                 0      0.00%     82.71% # attempts to use FU when none available
system.cpu.iq.fu_full::SimdSqrt                     0      0.00%     82.71% # attempts to use FU when none available
system.cpu.iq.fu_full::SimdFloatAdd                 0      0.00%     82.71% # attempts to use FU when none available
system.cpu.iq.fu_full::SimdFloatAlu                 0      0.00%     82.71% # attempts to use FU when none available
system.cpu.iq.fu_full::SimdFloatCmp                 0      0.00%     82.71% # attempts to use FU when none available
system.cpu.iq.fu_full::SimdFloatCvt                 0      0.00%     82.71% # attempts to use FU when none available
system.cpu.iq.fu_full::SimdFloatDiv                 0      0.00%     82.71% # attempts to use FU when none available
system.cpu.iq.fu_full::SimdFloatMisc                0      0.00%     82.71% # attempts to use FU when none available
system.cpu.iq.fu_full::SimdFloatMult                0      0.00%     82.71% # attempts to use FU when none available
system.cpu.iq.fu_full::SimdFloatMultAcc             0      0.00%     82.71% # attempts to use FU when none available
system.cpu.iq.fu_full::SimdFloatSqrt                0      0.00%     82.71% # attempts to use FU when none available
system.cpu.iq.fu_full::MemRead                  11038      7.21%     89.91% # attempts to use FU when none available
system.cpu.iq.fu_full::MemWrite                 15443     10.09%    100.00% # attempts to use FU when none available
system.cpu.iq.fu_full::IprAccess                    0      0.00%    100.00% # attempts to use FU when none available
system.cpu.iq.fu_full::InstPrefetch                 0      0.00%    100.00% # attempts to use FU when none available
system.cpu.iq.FU_type_0::No_OpClass                 0      0.00%      0.00% # Type of FU issued
system.cpu.iq.FU_type_0::IntAlu              11069838     84.78%     84.78% # Type of FU issued
system.cpu.iq.FU_type_0::IntMult               124530      0.95%     85.74% # Type of FU issued
system.cpu.iq.FU_type_0::IntDiv                     0      0.00%     85.74% # Type of FU issued
system.cpu.iq.FU_type_0::FloatAdd                   0      0.00%     85.74% # Type of FU issued
system.cpu.iq.FU_type_0::FloatCmp                   0      0.00%     85.74% # Type of FU issued
system.cpu.iq.FU_type_0::FloatCvt                   0      0.00%     85.74% # Type of FU issued
system.cpu.iq.FU_type_0::FloatMult                  0      0.00%     85.74% # Type of FU issued
system.cpu.iq.FU_type_0::FloatDiv                   0      0.00%     85.74% # Type of FU issued
system.cpu.iq.FU_type_0::FloatSqrt                  0      0.00%     85.74% # Type of FU issued
system.cpu.iq.FU_type_0::SimdAdd                    0      0.00%     85.74% # Type of FU issued
system.cpu.iq.FU_type_0::SimdAddAcc                 0      0.00%     85.74% # Type of FU issued
system.cpu.iq.FU_type_0::SimdAlu                    0      0.00%     85.74% # Type of FU issued
system.cpu.iq.FU_type_0::SimdCmp                    0      0.00%     85.74% # Type of FU issued
system.cpu.iq.FU_type_0::SimdCvt                    0      0.00%     85.74% # Type of FU issued
system.cpu.iq.FU_type_0::SimdMisc                   0      0.00%     85.74% # Type of FU issued
system.cpu.iq.FU_type_0::SimdMult                   0      0.00%     85.74% # Type of FU issued
system.cpu.iq.FU_type_0::SimdMultAcc                0      0.00%     85.74% # Type of FU issued
system.cpu.iq.FU_type_0::SimdShift                  0      0.00%     85.74% # Type of FU issued
system.cpu.iq.FU_type_0::SimdShiftAcc               0      0.00%     85.74% # Type of FU issued
system.cpu.iq.FU_type_0::SimdSqrt                   0      0.00%     85.74% # Type of FU issued
system.cpu.iq.FU_type_0::SimdFloatAdd               0      0.00%     85.74% # Type of FU issued
system.cpu.iq.FU_type_0::SimdFloatAlu               0      0.00%     85.74% # Type of FU issued
system.cpu.iq.FU_type_0::SimdFloatCmp               0      0.00%     85.74% # Type of FU issued
system.cpu.iq.FU_type_0::SimdFloatCvt               0      0.00%     85.74% # Type of FU issued
system.cpu.iq.FU_type_0::SimdFloatDiv               0      0.00%     85.74% # Type of FU issued
system.cpu.iq.FU_type_0::SimdFloatMisc              0      0.00%     85.74% # Type of FU issued
system.cpu.iq.FU_type_0::SimdFloatMult              0      0.00%     85.74% # Type of FU issued
system.cpu.iq.FU_type_0::SimdFloatMultAcc            0      0.00%     85.74% # Type of FU issued
system.cpu.iq.FU_type_0::SimdFloatSqrt              0      0.00%     85.74% # Type of FU issued
system.cpu.iq.FU_type_0::MemRead               902720      6.91%     92.65% # Type of FU issued
system.cpu.iq.FU_type_0::MemWrite              959449      7.35%    100.00% # Type of FU issued
system.cpu.iq.FU_type_0::IprAccess                  0      0.00%    100.00% # Type of FU issued
system.cpu.iq.FU_type_0::InstPrefetch               0      0.00%    100.00% # Type of FU issued
system.cpu.iq.FU_type_0::total               13056537                       # Type of FU issued
system.cpu.iq.rate                           2.294806                       # Inst issue rate
system.cpu.iq.fu_busy_cnt                      153119                       # FU busy when requested
system.cpu.iq.fu_busy_rate                   0.011727                       # FU busy rate (busy events/executed inst)
system.cpu.iq.int_inst_queue_reads           31931205                       # Number of integer instruction queue reads
system.cpu.iq.int_inst_queue_writes          18582154                       # Number of integer instruction queue writes
system.cpu.iq.int_inst_queue_wakeup_accesses     12834189                       # Number of integer instruction queue wakeup accesses
system.cpu.iq.fp_inst_queue_reads                  36                       # Number of floating instruction queue reads
system.cpu.iq.fp_inst_queue_writes                 48                       # Number of floating instruction queue writes
system.cpu.iq.fp_inst_queue_wakeup_accesses           16                       # Number of floating instruction queue wakeup accesses
system.cpu.iq.int_alu_accesses               13209636                       # Number of integer alu accesses
system.cpu.iq.fp_alu_accesses                      20                       # Number of floating point alu accesses
system.cpu.iew.lsq.thread0.forwLoads             1292                       # Number of loads that had data forwarded from stores
system.cpu.iew.lsq.thread0.invAddrLoads             0                       # Number of loads ignored due to an invalid address
system.cpu.iew.lsq.thread0.squashedLoads       232883                       # Number of loads squashed
system.cpu.iew.lsq.thread0.ignoredResponses            8                       # Number of memory responses ignored because the instruction is squashed
system.cpu.iew.lsq.thread0.memOrderViolation           96                       # Number of memory ordering violations
system.cpu.iew.lsq.thread0.squashedStores       258244                       # Number of stores squashed
system.cpu.iew.lsq.thread0.invAddrSwpfs             0                       # Number of software prefetches ignored due to an invalid address
system.cpu.iew.lsq.thread0.blockedLoads             0                       # Number of blocked loads due to partial load-store forwarding
system.cpu.iew.lsq.thread0.rescheduledLoads        72592                       # Number of loads that were rescheduled
system.cpu.iew.lsq.thread0.cacheBlocked             6                       # Number of times an access to memory failed due to the cache being blocked
system.cpu.iew.iewIdleCycles                        0                       # Number of cycles IEW is idle
system.cpu.iew.iewSquashCycles                  76519                       # Number of cycles IEW is squashing
system.cpu.iew.iewBlockCycles                  379308                       # Number of cycles IEW is blocking
system.cpu.iew.iewUnblockCycles                   139                       # Number of cycles IEW is unblocking
system.cpu.iew.iewDispatchedInsts            15198761                       # Number of instructions dispatched to IQ
system.cpu.iew.iewDispSquashedInsts              1832                       # Number of squashed instructions skipped by dispatch
system.cpu.iew.iewDispLoadInsts                941262                       # Number of dispatched load instructions
system.cpu.iew.iewDispStoreInsts              1165803                       # Number of dispatched store instructions
system.cpu.iew.iewDispNonSpecInsts                100                       # Number of dispatched non-speculative instructions
system.cpu.iew.iewIQFullEvents                     21                       # Number of times the IQ has become full, causing a stall
system.cpu.iew.iewLSQFullEvents                   117                       # Number of times the LSQ has become full, causing a stall
system.cpu.iew.memOrderViolationEvents             96                       # Number of memory order violations
system.cpu.iew.predictedTakenIncorrect          41655                       # Number of branches that were predicted taken incorrectly
system.cpu.iew.predictedNotTakenIncorrect        35010                       # Number of branches that were predicted not taken incorrectly
system.cpu.iew.branchMispredicts                76665                       # Number of branch mispredicts detected at execute
system.cpu.iew.iewExecutedInsts              12981261                       # Number of executed instructions
system.cpu.iew.iewExecLoadInsts                887124                       # Number of load instructions executed
system.cpu.iew.iewExecSquashedInsts             75275                       # Number of squashed instructions skipped in execute
system.cpu.iew.exec_swp                             0                       # number of swp insts executed
system.cpu.iew.exec_nop                            79                       # number of nop insts executed
system.cpu.iew.exec_refs                      1833401                       # number of memory reference insts executed
system.cpu.iew.exec_branches                  2029875                       # Number of branches executed
system.cpu.iew.exec_stores                     946277                       # Number of stores executed
system.cpu.iew.exec_rate                     2.281576                       # Inst execution rate
system.cpu.iew.wb_sent                       12866666                       # cumulative count of insts sent to commit
system.cpu.iew.wb_count                      12834205                       # cumulative count of insts written-back
system.cpu.iew.wb_producers                   8932020                       # num instructions producing a value
system.cpu.iew.wb_consumers                  27035495                       # num instructions consuming a value
system.cpu.iew.wb_penalized                         0                       # number of instrctions required to write to 'other' IQ
system.cpu.iew.wb_rate                       2.255729                       # insts written-back per cycle
system.cpu.iew.wb_fanout                     0.330381                       # average fanout of values written-back
system.cpu.iew.wb_penalized_rate                    0                       # fraction of instructions written-back that wrote to 'other' IQ
system.cpu.commit.commitSquashedInsts         3383528                       # The number of squashed insts skipped by commit
system.cpu.commit.commitNonSpecStalls             140                       # The number of times commit has been forced to stall to communicate backwards
system.cpu.commit.branchMispredicts             76447                       # The number of times a branch was mispredicted
system.cpu.commit.committed_per_cycle::samples      5208195                       # Number of insts commited each cycle
system.cpu.commit.committed_per_cycle::mean     2.268577                       # Number of insts commited each cycle
system.cpu.commit.committed_per_cycle::stdev     2.232349                       # Number of insts commited each cycle
system.cpu.commit.committed_per_cycle::underflows            0      0.00%      0.00% # Number of insts commited each cycle
system.cpu.commit.committed_per_cycle::0       914856     17.57%     17.57% # Number of insts commited each cycle
system.cpu.commit.committed_per_cycle::1      1754431     33.69%     51.25% # Number of insts commited each cycle
system.cpu.commit.committed_per_cycle::2       802721     15.41%     66.66% # Number of insts commited each cycle
system.cpu.commit.committed_per_cycle::3       658492     12.64%     79.31% # Number of insts commited each cycle
system.cpu.commit.committed_per_cycle::4       285883      5.49%     84.80% # Number of insts commited each cycle
system.cpu.commit.committed_per_cycle::5       213934      4.11%     88.90% # Number of insts commited each cycle
system.cpu.commit.committed_per_cycle::6       152723      2.93%     91.84% # Number of insts commited each cycle
system.cpu.commit.committed_per_cycle::7        50938      0.98%     92.81% # Number of insts commited each cycle
system.cpu.commit.committed_per_cycle::8       374217      7.19%    100.00% # Number of insts commited each cycle
system.cpu.commit.committed_per_cycle::overflows            0      0.00%    100.00% # Number of insts commited each cycle
system.cpu.commit.committed_per_cycle::min_value            0                       # Number of insts commited each cycle
system.cpu.commit.committed_per_cycle::max_value            8                       # Number of insts commited each cycle
system.cpu.commit.committed_per_cycle::total      5208195                       # Number of insts commited each cycle
system.cpu.commit.committedInsts             10000004                       # Number of instructions committed
system.cpu.commit.committedOps               11815191                       # Number of ops (including micro ops) committed
system.cpu.commit.swp_count                         0                       # Number of s/w prefetches committed
system.cpu.commit.refs                        1615930                       # Number of memory references committed
system.cpu.commit.loads                        708375                       # Number of loads committed
system.cpu.commit.membars                          60                       # Number of memory barriers committed
system.cpu.commit.branches                    1869008                       # Number of branches committed
system.cpu.commit.fp_insts                         16                       # Number of committed floating point instructions.
system.cpu.commit.int_insts                  10732648                       # Number of committed integer instructions.
system.cpu.commit.function_calls               412030                       # Number of function calls committed.
system.cpu.commit.op_class_0::No_OpClass            0      0.00%      0.00% # Class of committed instruction
system.cpu.commit.op_class_0::IntAlu         10084975     85.36%     85.36% # Class of committed instruction
system.cpu.commit.op_class_0::IntMult          114286      0.97%     86.32% # Class of committed instruction
system.cpu.commit.op_class_0::IntDiv                0      0.00%     86.32% # Class of committed instruction
system.cpu.commit.op_class_0::FloatAdd              0      0.00%     86.32% # Class of committed instruction
system.cpu.commit.op_class_0::FloatCmp              0      0.00%     86.32% # Class of committed instruction
system.cpu.commit.op_class_0::FloatCvt              0      0.00%     86.32% # Class of committed instruction
system.cpu.commit.op_class_0::FloatMult             0      0.00%     86.32% # Class of committed instruction
system.cpu.commit.op_class_0::FloatDiv              0      0.00%     86.32% # Class of committed instruction
system.cpu.commit.op_class_0::FloatSqrt             0      0.00%     86.32% # Class of committed instruction
system.cpu.commit.op_class_0::SimdAdd               0      0.00%     86.32% # Class of committed instruction
system.cpu.commit.op_class_0::SimdAddAcc            0      0.00%     86.32% # Class of committed instruction
system.cpu.commit.op_class_0::SimdAlu               0      0.00%     86.32% # Class of committed instruction
system.cpu.commit.op_class_0::SimdCmp               0      0.00%     86.32% # Class of committed instruction
system.cpu.commit.op_class_0::SimdCvt               0      0.00%     86.32% # Class of committed instruction
system.cpu.commit.op_class_0::SimdMisc              0      0.00%     86.32% # Class of committed instruction
system.cpu.commit.op_class_0::SimdMult              0      0.00%     86.32% # Class of committed instruction
system.cpu.commit.op_class_0::SimdMultAcc            0      0.00%     86.32% # Class of committed instruction
system.cpu.commit.op_class_0::SimdShift             0      0.00%     86.32% # Class of committed instruction
system.cpu.commit.op_class_0::SimdShiftAcc            0      0.00%     86.32% # Class of committed instruction
system.cpu.commit.op_class_0::SimdSqrt              0      0.00%     86.32% # Class of committed instruction
system.cpu.commit.op_class_0::SimdFloatAdd            0      0.00%     86.32% # Class of committed instruction
system.cpu.commit.op_class_0::SimdFloatAlu            0      0.00%     86.32% # Class of committed instruction
system.cpu.commit.op_class_0::SimdFloatCmp            0      0.00%     86.32% # Class of committed instruction
system.cpu.commit.op_class_0::SimdFloatCvt            0      0.00%     86.32% # Class of committed instruction
system.cpu.commit.op_class_0::SimdFloatDiv            0      0.00%     86.32% # Class of committed instruction
system.cpu.commit.op_class_0::SimdFloatMisc            0      0.00%     86.32% # Class of committed instruction
system.cpu.commit.op_class_0::SimdFloatMult            0      0.00%     86.32% # Class of committed instruction
system.cpu.commit.op_class_0::SimdFloatMultAcc            0      0.00%     86.32% # Class of committed instruction
system.cpu.commit.op_class_0::SimdFloatSqrt            0      0.00%     86.32% # Class of committed instruction
system.cpu.commit.op_class_0::MemRead          708375      6.00%     92.32% # Class of committed instruction
system.cpu.commit.op_class_0::MemWrite         907555      7.68%    100.00% # Class of committed instruction
system.cpu.commit.op_class_0::IprAccess             0      0.00%    100.00% # Class of committed instruction
system.cpu.commit.op_class_0::InstPrefetch            0      0.00%    100.00% # Class of committed instruction
system.cpu.commit.op_class_0::total          11815191                       # Class of committed instruction
system.cpu.commit.bw_lim_events                374217                       # number cycles where commit BW limit reached
[...]
system.cpu.dcache.blocked::no_mshrs                 6                       # number of cycles access was blocked
system.cpu.dcache.blocked::no_targets               0                       # number of cycles access was blocked
system.cpu.dcache.avg_blocked_cycles::no_mshrs    57.166667                       # average number of cycles each access was blocked
system.cpu.dcache.avg_blocked_cycles::no_targets          nan                       # average number of cycles each access was blocked
system.cpu.dcache.fast_writes                       0                       # number of fast writes performed
system.cpu.dcache.cache_copies                      0                       # number of cache copies performed
system.cpu.dcache.writebacks::writebacks          127                       # number of writebacks
system.cpu.dcache.writebacks::total               127                       # number of writebacks
system.cpu.dcache.ReadReq_mshr_hits::cpu.data          167                       # number of ReadReq MSHR hits
system.cpu.dcache.ReadReq_mshr_hits::total          167                       # number of ReadReq MSHR hits
system.cpu.dcache.WriteReq_mshr_hits::cpu.data          315                       # number of WriteReq MSHR hits
system.cpu.dcache.WriteReq_mshr_hits::total          315                       # number of WriteReq MSHR hits
system.cpu.dcache.LoadLockedReq_mshr_hits::cpu.data            5                       # number of LoadLockedReq MSHR hits
system.cpu.dcache.LoadLockedReq_mshr_hits::total            5                       # number of LoadLockedReq MSHR hits
system.cpu.dcache.demand_mshr_hits::cpu.data          482                       # number of demand (read+write) MSHR hits
system.cpu.dcache.demand_mshr_hits::total          482                       # number of demand (read+write) MSHR hits
system.cpu.dcache.overall_mshr_hits::cpu.data          482                       # number of overall MSHR hits
system.cpu.dcache.overall_mshr_hits::total          482                       # number of overall MSHR hits
system.cpu.dcache.ReadReq_mshr_misses::cpu.data          195                       # number of ReadReq MSHR misses
system.cpu.dcache.ReadReq_mshr_misses::total          195                       # number of ReadReq MSHR misses
system.cpu.dcache.WriteReq_mshr_misses::cpu.data          222                       # number of WriteReq MSHR misses
system.cpu.dcache.WriteReq_mshr_misses::total          222                       # number of WriteReq MSHR misses
system.cpu.dcache.demand_mshr_misses::cpu.data          417                       # number of demand (read+write) MSHR misses
system.cpu.dcache.demand_mshr_misses::total          417                       # number of demand (read+write) MSHR misses
system.cpu.dcache.overall_mshr_misses::cpu.data          417                       # number of overall MSHR misses
system.cpu.dcache.overall_mshr_misses::total          417                       # number of overall MSHR misses
system.cpu.dcache.ReadReq_mshr_miss_latency::cpu.data     10620750                       # number of ReadReq MSHR miss cycles
system.cpu.dcache.ReadReq_mshr_miss_latency::total     10620750                       # number of ReadReq MSHR miss cycles
system.cpu.dcache.WriteReq_mshr_miss_latency::cpu.data     13216750                       # number of WriteReq MSHR miss cycles
system.cpu.dcache.WriteReq_mshr_miss_latency::total     13216750                       # number of WriteReq MSHR miss cycles
system.cpu.dcache.demand_mshr_miss_latency::cpu.data     23837500                       # number of demand (read+write) MSHR miss cycles
system.cpu.dcache.demand_mshr_miss_latency::total     23837500                       # number of demand (read+write) MSHR miss cycles
system.cpu.dcache.overall_mshr_miss_latency::cpu.data     23837500                       # number of overall MSHR miss cycles
system.cpu.dcache.overall_mshr_miss_latency::total     23837500                       # number of overall MSHR miss cycles
system.cpu.dcache.ReadReq_mshr_miss_rate::cpu.data     0.000238                       # mshr miss rate for ReadReq accesses
system.cpu.dcache.ReadReq_mshr_miss_rate::total     0.000238                       # mshr miss rate for ReadReq accesses
system.cpu.dcache.WriteReq_mshr_miss_rate::cpu.data     0.000245                       # mshr miss rate for WriteReq accesses
system.cpu.dcache.WriteReq_mshr_miss_rate::total     0.000245                       # mshr miss rate for WriteReq accesses
system.cpu.dcache.demand_mshr_miss_rate::cpu.data     0.000242                       # mshr miss rate for demand accesses
system.cpu.dcache.demand_mshr_miss_rate::total     0.000242                       # mshr miss rate for demand accesses
system.cpu.dcache.overall_mshr_miss_rate::cpu.data     0.000242                       # mshr miss rate for overall accesses
system.cpu.dcache.overall_mshr_miss_rate::total     0.000242                       # mshr miss rate for overall accesses
system.cpu.dcache.ReadReq_avg_mshr_miss_latency::cpu.data 54465.384615                       # average ReadReq mshr miss latency
system.cpu.dcache.ReadReq_avg_mshr_miss_latency::total 54465.384615                       # average ReadReq mshr miss latency
system.cpu.dcache.WriteReq_avg_mshr_miss_latency::cpu.data 59534.909910                       # average WriteReq mshr miss latency
system.cpu.dcache.WriteReq_avg_mshr_miss_latency::total 59534.909910                       # average WriteReq mshr miss latency
system.cpu.dcache.demand_avg_mshr_miss_latency::cpu.data 57164.268585                       # average overall mshr miss latency
system.cpu.dcache.demand_avg_mshr_miss_latency::total 57164.268585                       # average overall mshr miss latency
system.cpu.dcache.overall_avg_mshr_miss_latency::cpu.data 57164.268585                       # average overall mshr miss latency
system.cpu.dcache.overall_avg_mshr_miss_latency::total 57164.268585                       # average overall mshr miss latency
system.cpu.dcache.no_allocate_misses                0                       # Number of misses that were no-allocate
system.cpu.icache.tags.replacements               344                       # number of replacements
system.cpu.icache.tags.tagsinuse           254.378957                       # Cycle average of tags in use
system.cpu.icache.tags.total_refs             2156027                       # Total number of references to valid blocks.
system.cpu.icache.tags.sampled_refs               599                       # Sample count of references to valid blocks.
system.cpu.icache.tags.avg_refs           3599.377295                       # Average number of references to valid blocks.
system.cpu.icache.tags.warmup_cycle                 0                       # Cycle when the warmup percentage was hit.
system.cpu.icache.tags.occ_blocks::cpu.inst   254.378957                       # Average occupied blocks per requestor
system.cpu.icache.tags.occ_percent::cpu.inst     0.993668                       # Average percentage of cache occupancy
system.cpu.icache.tags.occ_percent::total     0.993668                       # Average percentage of cache occupancy
system.cpu.icache.tags.occ_task_id_blocks::1024          255                       # Occupied blocks per task id
system.cpu.icache.tags.age_task_id_blocks_1024::3          255                       # Occupied blocks per task id
system.cpu.icache.tags.occ_task_id_percent::1024     0.996094                       # Percentage of cache occupancy per task id
system.cpu.icache.tags.tag_accesses           8627839                       # Number of tag accesses
system.cpu.icache.tags.data_accesses          8627839                       # Number of data accesses
system.cpu.icache.ReadReq_hits::cpu.inst      2156027                       # number of ReadReq hits
system.cpu.icache.ReadReq_hits::total         2156027                       # number of ReadReq hits
system.cpu.icache.demand_hits::cpu.inst       2156027                       # number of demand (read+write) hits
system.cpu.icache.demand_hits::total          2156027                       # number of demand (read+write) hits
system.cpu.icache.overall_hits::cpu.inst      2156027                       # number of overall hits
system.cpu.icache.overall_hits::total         2156027                       # number of overall hits
system.cpu.icache.ReadReq_misses::cpu.inst          783                       # number of ReadReq misses
system.cpu.icache.ReadReq_misses::total           783                       # number of ReadReq misses
system.cpu.icache.demand_misses::cpu.inst          783                       # number of demand (read+write) misses
system.cpu.icache.demand_misses::total            783                       # number of demand (read+write) misses
system.cpu.icache.overall_misses::cpu.inst          783                       # number of overall misses
system.cpu.icache.overall_misses::total           783                       # number of overall misses
system.cpu.icache.ReadReq_miss_latency::cpu.inst     38999248                       # number of ReadReq miss cycles
system.cpu.icache.ReadReq_miss_latency::total     38999248                       # number of ReadReq miss cycles
system.cpu.icache.demand_miss_latency::cpu.inst     38999248                       # number of demand (read+write) miss cycles
system.cpu.icache.demand_miss_latency::total     38999248                       # number of demand (read+write) miss cycles
system.cpu.icache.overall_miss_latency::cpu.inst     38999248                       # number of overall miss cycles
system.cpu.icache.overall_miss_latency::total     38999248                       # number of overall miss cycles
system.cpu.icache.ReadReq_accesses::cpu.inst      2156810                       # number of ReadReq accesses(hits+misses)
system.cpu.icache.ReadReq_accesses::total      2156810                       # number of ReadReq accesses(hits+misses)
system.cpu.icache.demand_accesses::cpu.inst      2156810                       # number of demand (read+write) accesses
system.cpu.icache.demand_accesses::total      2156810                       # number of demand (read+write) accesses
system.cpu.icache.overall_accesses::cpu.inst      2156810                       # number of overall (read+write) accesses
system.cpu.icache.overall_accesses::total      2156810                       # number of overall (read+write) accesses
system.cpu.icache.ReadReq_miss_rate::cpu.inst     0.000363                       # miss rate for ReadReq accesses
system.cpu.icache.ReadReq_miss_rate::total     0.000363                       # miss rate for ReadReq accesses
system.cpu.icache.demand_miss_rate::cpu.inst     0.000363                       # miss rate for demand accesses
system.cpu.icache.demand_miss_rate::total     0.000363                       # miss rate for demand accesses
system.cpu.icache.overall_miss_rate::cpu.inst     0.000363                       # miss rate for overall accesses
system.cpu.icache.overall_miss_rate::total     0.000363                       # miss rate for overall accesses
system.cpu.icache.ReadReq_avg_miss_latency::cpu.inst 49807.468710                       # average ReadReq miss latency
system.cpu.icache.ReadReq_avg_miss_latency::total 49807.468710                       # average ReadReq miss latency
system.cpu.icache.demand_avg_miss_latency::cpu.inst 49807.468710                       # average overall miss latency
system.cpu.icache.demand_avg_miss_latency::total 49807.468710                       # average overall miss latency
system.cpu.icache.overall_avg_miss_latency::cpu.inst 49807.468710                       # average overall miss latency
system.cpu.icache.overall_avg_miss_latency::total 49807.468710                       # average overall miss latency
system.cpu.icache.blocked_cycles::no_mshrs          453                       # number of cycles access was blocked
system.cpu.icache.blocked_cycles::no_targets            0                       # number of cycles access was blocked
system.cpu.icache.blocked::no_mshrs                14                       # number of cycles access was blocked
system.cpu.icache.blocked::no_targets               0                       # number of cycles access was blocked
system.cpu.icache.avg_blocked_cycles::no_mshrs    32.357143                       # average number of cycles each access was blocked
system.cpu.icache.avg_blocked_cycles::no_targets          nan                       # average number of cycles each access was blocked
system.cpu.icache.fast_writes                       0                       # number of fast writes performed
system.cpu.icache.cache_copies                      0                       # number of cache copies performed
system.cpu.icache.ReadReq_mshr_hits::cpu.inst          184                       # number of ReadReq MSHR hits
system.cpu.icache.ReadReq_mshr_hits::total          184                       # number of ReadReq MSHR hits
system.cpu.icache.demand_mshr_hits::cpu.inst          184                       # number of demand (read+write) MSHR hits
system.cpu.icache.demand_mshr_hits::total          184                       # number of demand (read+write) MSHR hits
system.cpu.icache.overall_mshr_hits::cpu.inst          184                       # number of overall MSHR hits
system.cpu.icache.overall_mshr_hits::total          184                       # number of overall MSHR hits
system.cpu.icache.ReadReq_mshr_misses::cpu.inst          599                       # number of ReadReq MSHR misses
system.cpu.icache.ReadReq_mshr_misses::total          599                       # number of ReadReq MSHR misses
system.cpu.icache.demand_mshr_misses::cpu.inst          599                       # number of demand (read+write) MSHR misses
system.cpu.icache.demand_mshr_misses::total          599                       # number of demand (read+write) MSHR misses
system.cpu.icache.overall_mshr_misses::cpu.inst          599                       # number of overall MSHR misses
system.cpu.icache.overall_mshr_misses::total          599                       # number of overall MSHR misses
system.cpu.icache.ReadReq_mshr_miss_latency::cpu.inst     30637750                       # number of ReadReq MSHR miss cycles
system.cpu.icache.ReadReq_mshr_miss_latency::total     30637750                       # number of ReadReq MSHR miss cycles
system.cpu.icache.demand_mshr_miss_latency::cpu.inst     30637750                       # number of demand (read+write) MSHR miss cycles
system.cpu.icache.demand_mshr_miss_latency::total     30637750                       # number of demand (read+write) MSHR miss cycles
system.cpu.icache.overall_mshr_miss_latency::cpu.inst     30637750                       # number of overall MSHR miss cycles
system.cpu.icache.overall_mshr_miss_latency::total     30637750                       # number of overall MSHR miss cycles
system.cpu.icache.ReadReq_mshr_miss_rate::cpu.inst     0.000278                       # mshr miss rate for ReadReq accesses
system.cpu.icache.ReadReq_mshr_miss_rate::total     0.000278                       # mshr miss rate for ReadReq accesses
system.cpu.icache.demand_mshr_miss_rate::cpu.inst     0.000278                       # mshr miss rate for demand accesses
system.cpu.icache.demand_mshr_miss_rate::total     0.000278                       # mshr miss rate for demand accesses
system.cpu.icache.overall_mshr_miss_rate::cpu.inst     0.000278                       # mshr miss rate for overall accesses
system.cpu.icache.overall_mshr_miss_rate::total     0.000278                       # mshr miss rate for overall accesses
system.cpu.icache.ReadReq_avg_mshr_miss_latency::cpu.inst 51148.163606                       # average ReadReq mshr miss latency
system.cpu.icache.ReadReq_avg_mshr_miss_latency::total 51148.163606                       # average ReadReq mshr miss latency
system.cpu.icache.demand_avg_mshr_miss_latency::cpu.inst 51148.163606                       # average overall mshr miss latency
system.cpu.icache.demand_avg_mshr_miss_latency::total 51148.163606                       # average overall mshr miss latency
system.cpu.icache.overall_avg_mshr_miss_latency::cpu.inst 51148.163606                       # average overall mshr miss latency
system.cpu.icache.overall_avg_mshr_miss_latency::total 51148.163606                       # average overall mshr miss latency
system.cpu.icache.no_allocate_misses                0                       # Number of misses that were no-allocate
system.membus.trans_dist::ReadReq                 794                       # Transaction distribution
system.membus.trans_dist::ReadResp                794                       # Transaction distribution
system.membus.trans_dist::Writeback               127                       # Transaction distribution
system.membus.trans_dist::ReadExReq               222                       # Transaction distribution
system.membus.trans_dist::ReadExResp              222                       # Transaction distribution
system.membus.pkt_count_system.cpu.icache.mem_side::system.mem_ctrls.port         1198                       # Packet count per connected master and slave (bytes)
system.membus.pkt_count_system.cpu.dcache.mem_side::system.mem_ctrls.port          961                       # Packet count per connected master and slave (bytes)
system.membus.pkt_count::total                   2159                       # Packet count per connected master and slave (bytes)
system.membus.pkt_size_system.cpu.icache.mem_side::system.mem_ctrls.port        38336                       # Cumulative packet size per connected master and slave (bytes)
system.membus.pkt_size_system.cpu.dcache.mem_side::system.mem_ctrls.port        34816                       # Cumulative packet size per connected master and slave (bytes)
system.membus.pkt_size::total                   73152                       # Cumulative packet size per connected master and slave (bytes)
system.membus.snoops                                0                       # Total snoops (count)
system.membus.snoop_fanout::samples              1143                       # Request fanout histogram
system.membus.snoop_fanout::mean                    1                       # Request fanout histogram
system.membus.snoop_fanout::stdev                   0                       # Request fanout histogram
system.membus.snoop_fanout::underflows              0      0.00%      0.00% # Request fanout histogram
system.membus.snoop_fanout::0                       0      0.00%      0.00% # Request fanout histogram
system.membus.snoop_fanout::1                    1143    100.00%    100.00% # Request fanout histogram
system.membus.snoop_fanout::2                       0      0.00%    100.00% # Request fanout histogram
system.membus.snoop_fanout::overflows               0      0.00%    100.00% # Request fanout histogram
system.membus.snoop_fanout::min_value               1                       # Request fanout histogram
system.membus.snoop_fanout::max_value               1                       # Request fanout histogram
system.membus.snoop_fanout::total                1143                       # Request fanout histogram
system.membus.reqLayer0.occupancy              825500                       # Layer occupancy (ticks)
system.membus.reqLayer0.utilization               0.0                       # Layer utilization (%)
system.membus.respLayer1.occupancy            1629250                       # Layer occupancy (ticks)
system.membus.respLayer1.utilization              0.1                       # Layer utilization (%)
system.membus.respLayer2.occupancy            1093500                       # Layer occupancy (ticks)
system.membus.respLayer2.utilization              0.0                       # Layer utilization (%)

---------- End Simulation Statistics   ----------
