
---------- Begin Simulation Statistics ----------
sim_seconds                                  0.002866                       # Number of seconds simulated
sim_ticks                                  2866376500                       # Number of ticks simulated
final_tick                                 2866376500                       # Number of ticks from beginning of simulation (restored from checkpoints and never reset)
sim_freq                                 1000000000000                       # Frequency of simulated ticks
host_inst_rate                                 245516                       # Simulator instruction rate (inst/s)
host_op_rate                                   290082                       # Simulator op (including micro ops) rate (op/s)
host_tick_rate                               70374042                       # Simulator tick rate (ticks/s)
host_mem_usage                                 655584                       # Number of bytes of host memory used
host_seconds                                    40.73                       # Real time elapsed on the host
sim_insts                                    10000004                       # Number of instructions simulated
sim_ops                                      11815191                       # Number of ops (including micro ops) simulated
system.voltage_domain.voltage                       1                       # Voltage in Volts
system.clk_domain.clock                           500                       # Clock period in ticks
system.mem_ctrls.bytes_read::cpu.inst           69184                       # Number of bytes read from this memory
system.mem_ctrls.bytes_read::cpu.data           31040                       # Number of bytes read from this memory
system.mem_ctrls.bytes_read::total             100224                       # Number of bytes read from this memory
system.mem_ctrls.bytes_inst_read::cpu.inst        69184                       # Number of instructions bytes read from this memory
system.mem_ctrls.bytes_inst_read::total         69184                       # Number of instructions bytes read from this memory
system.mem_ctrls.bytes_written::writebacks        13888                       # Number of bytes written to this memory
system.mem_ctrls.bytes_written::total           13888                       # Number of bytes written to this memory
system.mem_ctrls.num_reads::cpu.inst             1081                       # Number of read requests responded to by this memory
system.mem_ctrls.num_reads::cpu.data              485                       # Number of read requests responded to by this memory
system.mem_ctrls.num_reads::total                1566                       # Number of read requests responded to by this memory
system.mem_ctrls.num_writes::writebacks           217                       # Number of write requests responded to by this memory
system.mem_ctrls.num_writes::total                217                       # Number of write requests responded to by this memory
system.mem_ctrls.bw_read::cpu.inst           24136397                       # Total read bandwidth from this memory (bytes/s)
system.mem_ctrls.bw_read::cpu.data           10829003                       # Total read bandwidth from this memory (bytes/s)
system.mem_ctrls.bw_read::total              34965400                       # Total read bandwidth from this memory (bytes/s)
system.mem_ctrls.bw_inst_read::cpu.inst      24136397                       # Instruction read bandwidth from this memory (bytes/s)
system.mem_ctrls.bw_inst_read::total         24136397                       # Instruction read bandwidth from this memory (bytes/s)
system.mem_ctrls.bw_write::writebacks         4845142                       # Write bandwidth from this memory (bytes/s)
system.mem_ctrls.bw_write::total              4845142                       # Write bandwidth from this memory (bytes/s)
system.mem_ctrls.bw_total::writebacks         4845142                       # Total bandwidth to/from this memory (bytes/s)
system.mem_ctrls.bw_total::cpu.inst          24136397                       # Total bandwidth to/from this memory (bytes/s)
system.mem_ctrls.bw_total::cpu.data          10829003                       # Total bandwidth to/from this memory (bytes/s)
system.mem_ctrls.bw_total::total             39810541                       # Total bandwidth to/from this memory (bytes/s)
system.mem_ctrls.readReqs                        1566                       # Number of read requests accepted
system.mem_ctrls.writeReqs                        217                       # Number of write requests accepted
system.mem_ctrls.readBursts                      1566                       # Number of DRAM read bursts, including those serviced by the write queue
system.mem_ctrls.writeBursts                      217                       # Number of DRAM write bursts, including those merged in the write queue
system.mem_ctrls.bytesReadDRAM                  96128                       # Total number of bytes read from DRAM
system.mem_ctrls.bytesReadWrQ                    4096                       # Total number of bytes read from write queue
system.mem_ctrls.bytesWritten                   11008                       # Total number of bytes written to DRAM
system.mem_ctrls.bytesReadSys                  100224                       # Total read bytes from the system interface side
system.mem_ctrls.bytesWrittenSys                13888                       # Total written bytes from the system interface side
system.mem_ctrls.servicedByWrQ                     64                       # Number of DRAM read bursts serviced by the write queue
system.mem_ctrls.mergedWrBursts                    18                       # Number of DRAM write bursts merged with an existing one
system.mem_ctrls.neitherReadNorWriteReqs            0                       # Number of requests that are neither read nor write
system.mem_ctrls.perBankRdBursts::0               164                       # Per bank write bursts
system.mem_ctrls.perBankRdBursts::1               125                       # Per bank write bursts
system.mem_ctrls.perBankRdBursts::2                21                       # Per bank write bursts
system.mem_ctrls.perBankRdBursts::3                73                       # Per bank write bursts
system.mem_ctrls.perBankRdBursts::4               190                       # Per bank write bursts
system.mem_ctrls.perBankRdBursts::5                59                       # Per bank write bursts
system.mem_ctrls.perBankRdBursts::6               121                       # Per bank write bursts
system.mem_ctrls.perBankRdBursts::7                78                       # Per bank write bursts
system.mem_ctrls.perBankRdBursts::8                89                       # Per bank write bursts
system.mem_ctrls.perBankRdBursts::9               101                       # Per bank write bursts
system.mem_ctrls.perBankRdBursts::10              111                       # Per bank write bursts
system.mem_ctrls.perBankRdBursts::11               17                       # Per bank write bursts
system.mem_ctrls.perBankRdBursts::12              101                       # Per bank write bursts
system.mem_ctrls.perBankRdBursts::13               72                       # Per bank write bursts
system.mem_ctrls.perBankRdBursts::14               47                       # Per bank write bursts
system.mem_ctrls.perBankRdBursts::15              133                       # Per bank write bursts
system.mem_ctrls.perBankWrBursts::0                34                       # Per bank write bursts
system.mem_ctrls.perBankWrBursts::1                 9                       # Per bank write bursts
system.mem_ctrls.perBankWrBursts::2                 7                       # Per bank write bursts
system.mem_ctrls.perBankWrBursts::3                53                       # Per bank write bursts
system.mem_ctrls.perBankWrBursts::4                19                       # Per bank write bursts
system.mem_ctrls.perBankWrBursts::5                 0                       # Per bank write bursts
system.mem_ctrls.perBankWrBursts::6                 0                       # Per bank write bursts
system.mem_ctrls.perBankWrBursts::7                 0                       # Per bank write bursts
system.mem_ctrls.perBankWrBursts::8                 0                       # Per bank write bursts
system.mem_ctrls.perBankWrBursts::9                 0                       # Per bank write bursts
system.mem_ctrls.perBankWrBursts::10                0                       # Per bank write bursts
system.mem_ctrls.perBankWrBursts::11                0                       # Per bank write bursts
system.mem_ctrls.perBankWrBursts::12                0                       # Per bank write bursts
system.mem_ctrls.perBankWrBursts::13                0                       # Per bank write bursts
system.mem_ctrls.perBankWrBursts::14                3                       # Per bank write bursts
system.mem_ctrls.perBankWrBursts::15               47                       # Per bank write bursts
system.mem_ctrls.numRdRetry                         0                       # Number of times read queue was full causing retry
system.mem_ctrls.numWrRetry                         0                       # Number of times write queue was full causing retry
system.mem_ctrls.totGap                    2851272500                       # Total gap between requests
system.mem_ctrls.readPktSize::0                     0                       # Read request sizes (log2)
system.mem_ctrls.readPktSize::1                     0                       # Read request sizes (log2)
system.mem_ctrls.readPktSize::2                     0                       # Read request sizes (log2)
system.mem_ctrls.readPktSize::3                     0                       # Read request sizes (log2)
system.mem_ctrls.readPktSize::4                     0                       # Read request sizes (log2)
system.mem_ctrls.readPktSize::5                     0                       # Read request sizes (log2)
system.mem_ctrls.readPktSize::6                  1566                       # Read request sizes (log2)
system.mem_ctrls.writePktSize::0                    0                       # Write request sizes (log2)
system.mem_ctrls.writePktSize::1                    0                       # Write request sizes (log2)
system.mem_ctrls.writePktSize::2                    0                       # Write request sizes (log2)
system.mem_ctrls.writePktSize::3                    0                       # Write request sizes (log2)
system.mem_ctrls.writePktSize::4                    0                       # Write request sizes (log2)
system.mem_ctrls.writePktSize::5                    0                       # Write request sizes (log2)
system.mem_ctrls.writePktSize::6                  217                       # Write request sizes (log2)
system.mem_ctrls.rdQLenPdf::0                     912                       # What read queue length does an incoming req see
system.mem_ctrls.rdQLenPdf::1                     393                       # What read queue length does an incoming req see
system.mem_ctrls.rdQLenPdf::2                     139                       # What read queue length does an incoming req see
system.mem_ctrls.rdQLenPdf::3                      48                       # What read queue length does an incoming req see
system.mem_ctrls.rdQLenPdf::4                      10                       # What read queue length does an incoming req see
system.mem_ctrls.rdQLenPdf::5                       0                       # What read queue length does an incoming req see
system.mem_ctrls.rdQLenPdf::6                       0                       # What read queue length does an incoming req see
system.mem_ctrls.rdQLenPdf::7                       0                       # What read queue length does an incoming req see
system.mem_ctrls.rdQLenPdf::8                       0                       # What read queue length does an incoming req see
system.mem_ctrls.rdQLenPdf::9                       0                       # What read queue length does an incoming req see
system.mem_ctrls.rdQLenPdf::10                      0                       # What read queue length does an incoming req see
system.mem_ctrls.rdQLenPdf::11                      0                       # What read queue length does an incoming req see
system.mem_ctrls.rdQLenPdf::12                      0                       # What read queue length does an incoming req see
system.mem_ctrls.rdQLenPdf::13                      0                       # What read queue length does an incoming req see
system.mem_ctrls.rdQLenPdf::14                      0                       # What read queue length does an incoming req see
system.mem_ctrls.rdQLenPdf::15                      0                       # What read queue length does an incoming req see
system.mem_ctrls.rdQLenPdf::16                      0                       # What read queue length does an incoming req see
system.mem_ctrls.rdQLenPdf::17                      0                       # What read queue length does an incoming req see
system.mem_ctrls.rdQLenPdf::18                      0                       # What read queue length does an incoming req see
system.mem_ctrls.rdQLenPdf::19                      0                       # What read queue length does an incoming req see
system.mem_ctrls.rdQLenPdf::20                      0                       # What read queue length does an incoming req see
system.mem_ctrls.rdQLenPdf::21                      0                       # What read queue length does an incoming req see
system.mem_ctrls.rdQLenPdf::22                      0                       # What read queue length does an incoming req see
system.mem_ctrls.rdQLenPdf::23                      0                       # What read queue length does an incoming req see
system.mem_ctrls.rdQLenPdf::24                      0                       # What read queue length does an incoming req see
system.mem_ctrls.rdQLenPdf::25                      0                       # What read queue length does an incoming req see
system.mem_ctrls.rdQLenPdf::26                      0                       # What read queue length does an incoming req see
system.mem_ctrls.rdQLenPdf::27                      0                       # What read queue length does an incoming req see
system.mem_ctrls.rdQLenPdf::28                      0                       # What read queue length does an incoming req see
system.mem_ctrls.rdQLenPdf::29                      0                       # What read queue length does an incoming req see
system.mem_ctrls.rdQLenPdf::30                      0                       # What read queue length does an incoming req see
system.mem_ctrls.rdQLenPdf::31                      0                       # What read queue length does an incoming req see
system.mem_ctrls.wrQLenPdf::0                       1                       # What write queue length does an incoming req see
system.mem_ctrls.wrQLenPdf::1                       1                       # What write queue length does an incoming req see
system.mem_ctrls.wrQLenPdf::2                       1                       # What write queue length does an incoming req see
system.mem_ctrls.wrQLenPdf::3                       1                       # What write queue length does an incoming req see
system.mem_ctrls.wrQLenPdf::4                       1                       # What write queue length does an incoming req see
system.mem_ctrls.wrQLenPdf::5                       1                       # What write queue length does an incoming req see
system.mem_ctrls.wrQLenPdf::6                       1                       # What write queue length does an incoming req see
system.mem_ctrls.wrQLenPdf::7                       1                       # What write queue length does an incoming req see
system.mem_ctrls.wrQLenPdf::8                       1                       # What write queue length does an incoming req see
system.mem_ctrls.wrQLenPdf::9                       1                       # What write queue length does an incoming req see
system.mem_ctrls.wrQLenPdf::10                      1                       # What write queue length does an incoming req see
system.mem_ctrls.wrQLenPdf::11                      1                       # What write queue length does an incoming req see
system.mem_ctrls.wrQLenPdf::12                      1                       # What write queue length does an incoming req see
system.mem_ctrls.wrQLenPdf::13                      1                       # What write queue length does an incoming req see
system.mem_ctrls.wrQLenPdf::14                      1                       # What write queue length does an incoming req see
system.mem_ctrls.wrQLenPdf::15                      7                       # What write queue length does an incoming req see
system.mem_ctrls.wrQLenPdf::16                      7                       # What write queue length does an incoming req see
system.mem_ctrls.wrQLenPdf::17                     11                       # What write queue length does an incoming req see
system.mem_ctrls.wrQLenPdf::18                     11                       # What write queue length does an incoming req see
system.mem_ctrls.wrQLenPdf::19                     11                       # What write queue length does an incoming req see
system.mem_ctrls.wrQLenPdf::20                     11                       # What write queue length does an incoming req see
system.mem_ctrls.wrQLenPdf::21                     11                       # What write queue length does an incoming req see
system.mem_ctrls.wrQLenPdf::22                     11                       # What write queue length does an incoming req see
system.mem_ctrls.wrQLenPdf::23                     11                       # What write queue length does an incoming req see
system.mem_ctrls.wrQLenPdf::24                     11                       # What write queue length does an incoming req see
system.mem_ctrls.wrQLenPdf::25                     11                       # What write queue length does an incoming req see
system.mem_ctrls.wrQLenPdf::26                     11                       # What write queue length does an incoming req see
system.mem_ctrls.wrQLenPdf::27                     10                       # What write queue length does an incoming req see
system.mem_ctrls.wrQLenPdf::28                     10                       # What write queue length does an incoming req see
system.mem_ctrls.wrQLenPdf::29                     10                       # What write queue length does an incoming req see
system.mem_ctrls.wrQLenPdf::30                     10                       # What write queue length does an incoming req see
system.mem_ctrls.wrQLenPdf::31                     10                       # What write queue length does an incoming req see
system.mem_ctrls.wrQLenPdf::32                     10                       # What write queue length does an incoming req see
system.mem_ctrls.wrQLenPdf::33                      0                       # What write queue length does an incoming req see
system.mem_ctrls.wrQLenPdf::34                      0                       # What write queue length does an incoming req see
system.mem_ctrls.wrQLenPdf::35                      0                       # What write queue length does an incoming req see
system.mem_ctrls.wrQLenPdf::36                      0                       # What write queue length does an incoming req see
system.mem_ctrls.wrQLenPdf::37                      0                       # What write queue length does an incoming req see
system.mem_ctrls.wrQLenPdf::38                      0                       # What write queue length does an incoming req see
system.mem_ctrls.wrQLenPdf::39                      0                       # What write queue length does an incoming req see
system.mem_ctrls.wrQLenPdf::40                      0                       # What write queue length does an incoming req see
system.mem_ctrls.wrQLenPdf::41                      0                       # What write queue length does an incoming req see
system.mem_ctrls.wrQLenPdf::42                      0                       # What write queue length does an incoming req see
system.mem_ctrls.wrQLenPdf::43                      0                       # What write queue length does an incoming req see
system.mem_ctrls.wrQLenPdf::44                      0                       # What write queue length does an incoming req see
system.mem_ctrls.wrQLenPdf::45                      0                       # What write queue length does an incoming req see
system.mem_ctrls.wrQLenPdf::46                      0                       # What write queue length does an incoming req see
system.mem_ctrls.wrQLenPdf::47                      0                       # What write queue length does an incoming req see
system.mem_ctrls.wrQLenPdf::48                      0                       # What write queue length does an incoming req see
system.mem_ctrls.wrQLenPdf::49                      0                       # What write queue length does an incoming req see
system.mem_ctrls.wrQLenPdf::50                      0                       # What write queue length does an incoming req see
system.mem_ctrls.wrQLenPdf::51                      0                       # What write queue length does an incoming req see
system.mem_ctrls.wrQLenPdf::52                      0                       # What write queue length does an incoming req see
system.mem_ctrls.wrQLenPdf::53                      0                       # What write queue length does an incoming req see
system.mem_ctrls.wrQLenPdf::54                      0                       # What write queue length does an incoming req see
system.mem_ctrls.wrQLenPdf::55                      0                       # What write queue length does an incoming req see
system.mem_ctrls.wrQLenPdf::56                      0                       # What write queue length does an incoming req see
system.mem_ctrls.wrQLenPdf::57                      0                       # What write queue length does an incoming req see
system.mem_ctrls.wrQLenPdf::58                      0                       # What write queue length does an incoming req see
system.mem_ctrls.wrQLenPdf::59                      0                       # What write queue length does an incoming req see
system.mem_ctrls.wrQLenPdf::60                      0                       # What write queue length does an incoming req see
system.mem_ctrls.wrQLenPdf::61                      0                       # What write queue length does an incoming req see
system.mem_ctrls.wrQLenPdf::62                      0                       # What write queue length does an incoming req see
system.mem_ctrls.wrQLenPdf::63                      0                       # What write queue length does an incoming req see
system.mem_ctrls.bytesPerActivate::samples          468                       # Bytes accessed per row activation
system.mem_ctrls.bytesPerActivate::mean    228.923077                       # Bytes accessed per row activation
system.mem_ctrls.bytesPerActivate::gmean   131.606989                       # Bytes accessed per row activation
system.mem_ctrls.bytesPerActivate::stdev   285.422386                       # Bytes accessed per row activation
system.mem_ctrls.bytesPerActivate::0-127          265     56.62%     56.62% # Bytes accessed per row activation
system.mem_ctrls.bytesPerActivate::128-255           68     14.53%     71.15% # Bytes accessed per row activation
system.mem_ctrls.bytesPerActivate::256-383           44      9.40%     80.56% # Bytes accessed per row activation
system.mem_ctrls.bytesPerActivate::384-511           23      4.91%     85.47% # Bytes accessed per row activation
system.mem_ctrls.bytesPerActivate::512-639           14      2.99%     88.46% # Bytes accessed per row activation
system.mem_ctrls.bytesPerActivate::640-767            8      1.71%     90.17% # Bytes accessed per row activation
system.mem_ctrls.bytesPerActivate::768-895            6      1.28%     91.45% # Bytes accessed per row activation
system.mem_ctrls.bytesPerActivate::896-1023            6      1.28%     92.74% # Bytes accessed per row activation
system.mem_ctrls.bytesPerActivate::1024-1151           34      7.26%    100.00% # Bytes accessed per row activation
system.mem_ctrls.bytesPerActivate::total          468                       # Bytes accessed per row activation
system.mem_ctrls.rdPerTurnAround::samples           10                       # Reads before turning the bus around for writes
system.mem_ctrls.rdPerTurnAround::mean            149                       # Reads before turning the bus around for writes
system.mem_ctrls.rdPerTurnAround::gmean     69.871608                       # Reads before turning the bus around for writes
system.mem_ctrls.rdPerTurnAround::stdev    174.979364                       # Reads before turning the bus around for writes
system.mem_ctrls.rdPerTurnAround::16-31             4     40.00%     40.00% # Reads before turning the bus around for writes
system.mem_ctrls.rdPerTurnAround::32-47             1     10.00%     50.00% # Reads before turning the bus around for writes
system.mem_ctrls.rdPerTurnAround::96-111            1     10.00%     60.00% # Reads before turning the bus around for writes
system.mem_ctrls.rdPerTurnAround::112-127            1     10.00%     70.00% # Reads before turning the bus around for writes
system.mem_ctrls.rdPerTurnAround::304-319            1     10.00%     80.00% # Reads before turning the bus around for writes
system.mem_ctrls.rdPerTurnAround::352-367            1     10.00%     90.00% # Reads before turning the bus around for writes
system.mem_ctrls.rdPerTurnAround::496-511            1     10.00%    100.00% # Reads before turning the bus around for writes
system.mem_ctrls.rdPerTurnAround::total            10                       # Reads before turning the bus around for writes
system.mem_ctrls.wrPerTurnAround::samples           10                       # Writes before turning the bus around for reads
system.mem_ctrls.wrPerTurnAround::mean      17.200000                       # Writes before turning the bus around for reads
system.mem_ctrls.wrPerTurnAround::gmean     17.171629                       # Writes before turning the bus around for reads
system.mem_ctrls.wrPerTurnAround::stdev      1.032796                       # Writes before turning the bus around for reads
system.mem_ctrls.wrPerTurnAround::16                4     40.00%     40.00% # Writes before turning the bus around for reads
system.mem_ctrls.wrPerTurnAround::18                6     60.00%    100.00% # Writes before turning the bus around for reads
system.mem_ctrls.wrPerTurnAround::total            10                       # Writes before turning the bus around for reads
system.mem_ctrls.totQLat                     17194000                       # Total ticks spent queuing
system.mem_ctrls.totMemAccLat                45356500                       # Total ticks spent from burst creation until serviced by the DRAM
system.mem_ctrls.totBusLat                    7510000                       # Total ticks spent in databus transfers
system.mem_ctrls.avgQLat                     11447.40                       # Average queueing delay per DRAM burst
system.mem_ctrls.avgBusLat                    5000.00                       # Average bus latency per DRAM burst
system.mem_ctrls.avgMemAccLat                30197.40                       # Average memory access latency per DRAM burst
system.mem_ctrls.avgRdBW                        33.54                       # Average DRAM read bandwidth in MiByte/s
system.mem_ctrls.avgWrBW                         3.84                       # Average achieved write bandwidth in MiByte/s
system.mem_ctrls.avgRdBWSys                     34.97                       # Average system read bandwidth in MiByte/s
system.mem_ctrls.avgWrBWSys                      4.85                       # Average system write bandwidth in MiByte/s
system.mem_ctrls.peakBW                      12800.00                       # Theoretical peak bandwidth in MiByte/s
system.mem_ctrls.busUtil                         0.29                       # Data bus utilization in percentage
system.mem_ctrls.busUtilRead                     0.26                       # Data bus utilization in percentage for reads
system.mem_ctrls.busUtilWrite                    0.03                       # Data bus utilization in percentage for writes
system.mem_ctrls.avgRdQLen                       1.01                       # Average read queue length when enqueuing
system.mem_ctrls.avgWrQLen                      24.39                       # Average write queue length when enqueuing
system.mem_ctrls.readRowHits                     1060                       # Number of row buffer hits during reads
system.mem_ctrls.writeRowHits                     146                       # Number of row buffer hits during writes
system.mem_ctrls.readRowHitRate                 70.57                       # Row buffer hit rate for reads
system.mem_ctrls.writeRowHitRate                73.37                       # Row buffer hit rate for writes
system.mem_ctrls.avgGap                    1599143.30                       # Average gap between requests
system.mem_ctrls.pageHitRate                    70.90                       # Row buffer hit rate, read and write combined
system.mem_ctrls_0.actEnergy                  2661120                       # Energy for activate commands per rank (pJ)
system.mem_ctrls_0.preEnergy                  1452000                       # Energy for precharge commands per rank (pJ)
system.mem_ctrls_0.readEnergy                 6481800                       # Energy for read commands per rank (pJ)
system.mem_ctrls_0.writeEnergy                 790560                       # Energy for write commands per rank (pJ)
system.mem_ctrls_0.refreshEnergy            187150080                       # Energy for refresh commands per rank (pJ)
system.mem_ctrls_0.actBackEnergy            489832920                       # Energy for active background per rank (pJ)
system.mem_ctrls_0.preBackEnergy           1289673750                       # Energy for precharge background per rank (pJ)
system.mem_ctrls_0.totalEnergy             1978042230                       # Total energy per rank (pJ)
system.mem_ctrls_0.averagePower            690.274889                       # Core power per rank (mW)
system.mem_ctrls_0.memoryStateTime::IDLE   2142204250                       # Time in different power states
system.mem_ctrls_0.memoryStateTime::REF      95680000                       # Time in different power states
system.mem_ctrls_0.memoryStateTime::PRE_PDN            0                       # Time in different power states
system.mem_ctrls_0.memoryStateTime::ACT     627715750                       # Time in different power states
system.mem_ctrls_0.memoryStateTime::ACT_PDN            0                       # Time in different power states
system.mem_ctrls_1.actEnergy                   876960                       # Energy for activate commands per rank (pJ)
system.mem_ctrls_1.preEnergy                   478500                       # Energy for precharge commands per rank (pJ)
system.mem_ctrls_1.readEnergy                 5233800                       # Energy for read commands per rank (pJ)
system.mem_ctrls_1.writeEnergy                 324000                       # Energy for write commands per rank (pJ)
system.mem_ctrls_1.refreshEnergy            187150080                       # Energy for refresh commands per rank (pJ)
system.mem_ctrls_1.actBackEnergy            102030570                       # Energy for active background per rank (pJ)
system.mem_ctrls_1.preBackEnergy           1629851250                       # Energy for precharge background per rank (pJ)
system.mem_ctrls_1.totalEnergy             1925945160                       # Total energy per rank (pJ)
system.mem_ctrls_1.averagePower            672.094640                       # Core power per rank (mW)
system.mem_ctrls_1.memoryStateTime::IDLE   2711232250                       # Time in different power states
system.mem_ctrls_1.memoryStateTime::REF      95680000                       # Time in different power states
system.mem_ctrls_1.memoryStateTime::PRE_PDN            0                       # Time in different power states
system.mem_ctrls_1.memoryStateTime::ACT      58687750                       # Time in different power states
system.mem_ctrls_1.memoryStateTime::ACT_PDN            0                       # Time in different power states
system.cpu.branchPred.lookups                 2553914                       # Number of BP lookups
system.cpu.branchPred.condPredicted           1807448                       # Number of conditional branches predicted
system.cpu.branchPred.condIncorrect             76927                       # Number of conditional branches incorrect
system.cpu.branchPred.BTBLookups              1083796                       # Number of BTB lookups
system.cpu.branchPred.BTBHits                 1079988                       # Number of BTB hits
system.cpu.branchPred.BTBCorrect                    0                       # Number of correct BTB predictions (this stat may not work properly.
system.cpu.branchPred.BTBHitPct             99.648642                       # BTB Hit Percentage
system.cpu.branchPred.usedRAS                  414834                       # Number of times the RAS was used to get a target.
system.cpu.branchPred.RASInCorrect              14182                       # Number of incorrect RAS predictions.
system.cpu_voltage_domain.voltage                   1                       # Voltage in Volts
system.cpu_clk_domain.clock                       500                       # Clock period in ticks
system.cpu.dstage2_mmu.stage2_tlb.walker.walks            0                       # Table walker walks requested
system.cpu.dstage2_mmu.stage2_tlb.walker.walkRequestOrigin_Requested::Data            0                       # Table walker requests started/completed, data/inst
system.cpu.dstage2_mmu.stage2_tlb.walker.walkRequestOrigin_Requested::Inst            0                       # Table walker requests started/completed, data/inst
system.cpu.dstage2_mmu.stage2_tlb.walker.walkRequestOrigin_Requested::total            0                       # Table walker requests started/completed, data/inst
system.cpu.dstage2_mmu.stage2_tlb.walker.walkRequestOrigin_Completed::Data            0                       # Table walker requests started/completed, data/inst
system.cpu.dstage2_mmu.stage2_tlb.walker.walkRequestOrigin_Completed::Inst            0                       # Table walker requests started/completed, data/inst
system.cpu.dstage2_mmu.stage2_tlb.walker.walkRequestOrigin_Completed::total            0                       # Table walker requests started/completed, data/inst
system.cpu.dstage2_mmu.stage2_tlb.walker.walkRequestOrigin::total            0                       # Table walker requests started/completed, data/inst
system.cpu.dstage2_mmu.stage2_tlb.inst_hits            0                       # ITB inst hits
system.cpu.dstage2_mmu.stage2_tlb.inst_misses            0                       # ITB inst misses
system.cpu.dstage2_mmu.stage2_tlb.read_hits            0                       # DTB read hits
system.cpu.dstage2_mmu.stage2_tlb.read_misses            0                       # DTB read misses
system.cpu.dstage2_mmu.stage2_tlb.write_hits            0                       # DTB write hits
system.cpu.dstage2_mmu.stage2_tlb.write_misses            0                       # DTB write misses
system.cpu.dstage2_mmu.stage2_tlb.flush_tlb            0                       # Number of times complete TLB was flushed
system.cpu.dstage2_mmu.stage2_tlb.flush_tlb_mva            0                       # Number of times TLB was flushed by MVA
system.cpu.dstage2_mmu.stage2_tlb.flush_tlb_mva_asid            0                       # Number of times TLB was flushed by MVA & ASID
system.cpu.dstage2_mmu.stage2_tlb.flush_tlb_asid            0                       # Number of times TLB was flushed by ASID
system.cpu.dstage2_mmu.stage2_tlb.flush_entries            0                       # Number of entries that have been flushed from TLB
system.cpu.dstage2_mmu.stage2_tlb.align_faults            0                       # Number of TLB faults due to alignment restrictions
system.cpu.dstage2_mmu.stage2_tlb.prefetch_faults            0                       # Number of TLB faults due to prefetch
system.cpu.dstage2_mmu.stage2_tlb.domain_faults            0                       # Number of TLB faults due to domain restrictions
system.cpu.dstage2_mmu.stage2_tlb.perms_faults            0                       # Number of TLB faults due to permissions restrictions
system.cpu.dstage2_mmu.stage2_tlb.read_accesses            0                       # DTB read accesses
system.cpu.dstage2_mmu.stage2_tlb.write_accesses            0                       # DTB write accesses
system.cpu.dstage2_mmu.stage2_tlb.inst_accesses            0                       # ITB inst accesses
system.cpu.dstage2_mmu.stage2_tlb.hits              0                       # DTB hits
system.cpu.dstage2_mmu.stage2_tlb.misses            0                       # DTB misses
system.cpu.dstage2_mmu.stage2_tlb.accesses            0                       # DTB accesses
system.cpu.dtb.walker.walks                         0                       # Table walker walks requested
system.cpu.dtb.walker.walkRequestOrigin_Requested::Data            0                       # Table walker requests started/completed, data/inst
system.cpu.dtb.walker.walkRequestOrigin_Requested::Inst            0                       # Table walker requests started/completed, data/inst
system.cpu.dtb.walker.walkRequestOrigin_Requested::total            0                       # Table walker requests started/completed, data/inst
system.cpu.dtb.walker.walkRequestOrigin_Completed::Data            0                       # Table walker requests started/completed, data/inst
system.cpu.dtb.walker.walkRequestOrigin_Completed::Inst            0                       # Table walker requests started/completed, data/inst
system.cpu.dtb.walker.walkRequestOrigin_Completed::total            0                       # Table walker requests started/completed, data/inst
system.cpu.dtb.walker.walkRequestOrigin::total            0                       # Table walker requests started/completed, data/inst
system.cpu.dtb.inst_hits                            0                       # ITB inst hits
system.cpu.dtb.inst_misses                          0                       # ITB inst misses
system.cpu.dtb.read_hits                            0                       # DTB read hits
system.cpu.dtb.read_misses                          0                       # DTB read misses
system.cpu.dtb.write_hits                           0                       # DTB write hits
system.cpu.dtb.write_misses                         0                       # DTB write misses
system.cpu.dtb.flush_tlb                            0                       # Number of times complete TLB was flushed
system.cpu.dtb.flush_tlb_mva                        0                       # Number of times TLB was flushed by MVA
system.cpu.dtb.flush_tlb_mva_asid                   0                       # Number of times TLB was flushed by MVA & ASID
system.cpu.dtb.flush_tlb_asid                       0                       # Number of times TLB was flushed by ASID
system.cpu.dtb.flush_entries                        0                       # Number of entries that have been flushed from TLB
system.cpu.dtb.align_faults                         0                       # Number of TLB faults due to alignment restrictions
system.cpu.dtb.prefetch_faults                      0                       # Number of TLB faults due to prefetch
system.cpu.dtb.domain_faults                        0                       # Number of TLB faults due to domain restrictions
system.cpu.dtb.perms_faults                         0                       # Number of TLB faults due to permissions restrictions
system.cpu.dtb.read_accesses                        0                       # DTB read accesses
system.cpu.dtb.write_accesses                       0                       # DTB write accesses
system.cpu.dtb.inst_accesses                        0                       # ITB inst accesses
system.cpu.dtb.hits                                 0                       # DTB hits
system.cpu.dtb.misses                               0                       # DTB misses
system.cpu.dtb.accesses                             0                       # DTB accesses
system.cpu.istage2_mmu.stage2_tlb.walker.walks            0                       # Table walker walks requested
system.cpu.istage2_mmu.stage2_tlb.walker.walkRequestOrigin_Requested::Data            0                       # Table walker requests started/completed, data/inst
system.cpu.istage2_mmu.stage2_tlb.walker.walkRequestOrigin_Requested::Inst            0                       # Table walker requests started/completed, data/inst
system.cpu.istage2_mmu.stage2_tlb.walker.walkRequestOrigin_Requested::total            0                       # Table walker requests started/completed, data/inst
system.cpu.istage2_mmu.stage2_tlb.walker.walkRequestOrigin_Completed::Data            0                       # Table walker requests started/completed, data/inst
system.cpu.istage2_mmu.stage2_tlb.walker.walkRequestOrigin_Completed::Inst            0                       # Table walker requests started/completed, data/inst
system.cpu.istage2_mmu.stage2_tlb.walker.walkRequestOrigin_Completed::total            0                       # Table walker requests started/completed, data/inst
system.cpu.istage2_mmu.stage2_tlb.walker.walkRequestOrigin::total            0                       # Table walker requests started/completed, data/inst
system.cpu.istage2_mmu.stage2_tlb.inst_hits            0                       # ITB inst hits
system.cpu.istage2_mmu.stage2_tlb.inst_misses            0                       # ITB inst misses
system.cpu.istage2_mmu.stage2_tlb.read_hits            0                       # DTB read hits
system.cpu.istage2_mmu.stage2_tlb.read_misses            0                       # DTB read misses
system.cpu.istage2_mmu.stage2_tlb.write_hits            0                       # DTB write hits
system.cpu.istage2_mmu.stage2_tlb.write_misses            0                       # DTB write misses
system.cpu.istage2_mmu.stage2_tlb.flush_tlb            0                       # Number of times complete TLB was flushed
system.cpu.istage2_mmu.stage2_tlb.flush_tlb_mva            0                       # Number of times TLB was flushed by MVA
system.cpu.istage2_mmu.stage2_tlb.flush_tlb_mva_asid            0                       # Number of times TLB was flushed by MVA & ASID
system.cpu.istage2_mmu.stage2_tlb.flush_tlb_asid            0                       # Number of times TLB was flushed by ASID
system.cpu.istage2_mmu.stage2_tlb.flush_entries            0                       # Number of entries that have been flushed from TLB
system.cpu.istage2_mmu.stage2_tlb.align_faults            0                       # Number of TLB faults due to alignment restrictions
system.cpu.istage2_mmu.stage2_tlb.prefetch_faults            0                       # Number of TLB faults due to prefetch
system.cpu.istage2_mmu.stage2_tlb.domain_faults            0                       # Number of TLB faults due to domain restrictions
system.cpu.istage2_mmu.stage2_tlb.perms_faults            0                       # Number of TLB faults due to permissions restrictions
system.cpu.istage2_mmu.stage2_tlb.read_accesses            0                       # DTB read accesses
system.cpu.istage2_mmu.stage2_tlb.write_accesses            0                       # DTB write accesses
system.cpu.istage2_mmu.stage2_tlb.inst_accesses            0                       # ITB inst accesses
system.cpu.istage2_mmu.stage2_tlb.hits              0                       # DTB hits
system.cpu.istage2_mmu.stage2_tlb.misses            0                       # DTB misses
system.cpu.istage2_mmu.stage2_tlb.accesses            0                       # DTB accesses
system.cpu.itb.walker.walks                         0                       # Table walker walks requested
system.cpu.itb.walker.walkRequestOrigin_Requested::Data            0                       # Table walker requests started/completed, data/inst
system.cpu.itb.walker.walkRequestOrigin_Requested::Inst            0                       # Table walker requests started/completed, data/inst
system.cpu.itb.walker.walkRequestOrigin_Requested::total            0                       # Table walker requests started/completed, data/inst
system.cpu.itb.walker.walkRequestOrigin_Completed::Data            0                       # Table walker requests started/completed, data/inst
system.cpu.itb.walker.walkRequestOrigin_Completed::Inst            0                       # Table walker requests started/completed, data/inst
system.cpu.itb.walker.walkRequestOrigin_Completed::total            0                       # Table walker requests started/completed, data/inst
system.cpu.itb.walker.walkRequestOrigin::total            0                       # Table walker requests started/completed, data/inst
system.cpu.itb.inst_hits                            0                       # ITB inst hits
system.cpu.itb.inst_misses                          0                       # ITB inst misses
system.cpu.itb.read_hits                            0                       # DTB read hits
system.cpu.itb.read_misses                          0                       # DTB read misses
system.cpu.itb.write_hits                           0                       # DTB write hits
system.cpu.itb.write_misses                         0                       # DTB write misses
system.cpu.itb.flush_tlb                            0                       # Number of times complete TLB was flushed
system.cpu.itb.flush_tlb_mva                        0                       # Number of times TLB was flushed by MVA
system.cpu.itb.flush_tlb_mva_asid                   0                       # Number of times TLB was flushed by MVA & ASID
system.cpu.itb.flush_tlb_asid                       0                       # Number of times TLB was flushed by ASID
system.cpu.itb.flush_entries                        0                       # Number of entries that have been flushed from TLB
system.cpu.itb.align_faults                         0                       # Number of TLB faults due to alignment restrictions
system.cpu.itb.prefetch_faults                      0                       # Number of TLB faults due to prefetch
system.cpu.itb.domain_faults                        0                       # Number of TLB faults due to domain restrictions
system.cpu.itb.perms_faults                         0                       # Number of TLB faults due to permissions restrictions
system.cpu.itb.read_accesses                        0                       # DTB read accesses
system.cpu.itb.write_accesses                       0                       # DTB write accesses
system.cpu.itb.inst_accesses                        0                       # ITB inst accesses
system.cpu.itb.hits                                 0                       # DTB hits
system.cpu.itb.misses                               0                       # DTB misses
system.cpu.itb.accesses                             0                       # DTB accesses
system.cpu.workload.num_syscalls                   21                       # Number of system calls
system.cpu.numCycles                          5732754                       # number of cpu cycles simulated
system.cpu.numWorkItemsStarted                      0                       # number of work items this cpu started
system.cpu.numWorkItemsCompleted                    0                       # number of work items this cpu completed
system.cpu.fetch.icacheStallCycles            2223235                       # Number of cycles fetch is stalled on an Icache miss
system.cpu.fetch.Insts                       14077333                       # Number of instructions fetch has processed
system.cpu.fetch.Branches                     2553914                       # Number of branches that fetch encountered
system.cpu.fetch.predictedBranches            1494822                       # Number of branches that fetch has predicted taken
system.cpu.fetch.Cycles                       3375149                       # Number of cycles fetch has run and was not squashing or blocked
system.cpu.fetch.SquashCycles                  153986                       # Number of cycles fetch has spent squashing
system.cpu.fetch.MiscStallCycles                  109                       # Number of cycles fetch has spent waiting on interrupts, or bad addresses, or out of MSHRs
system.cpu.fetch.PendingTrapStallCycles           615                       # Number of stall cycles due to pending traps
system.cpu.fetch.IcacheWaitRetryStallCycles           70                       # Number of stall cycles due to full MSHR
system.cpu.fetch.CacheLines                   2158945                       # Number of cache lines fetched
system.cpu.fetch.IcacheSquashes                 33677                       # Number of outstanding Icache misses that were squashed
system.cpu.fetch.rateDist::samples            5676171                       # Number of instructions fetched each cycle (Total)
system.cpu.fetch.rateDist::mean              2.930291                       # Number of instructions fetched each cycle (Total)
system.cpu.fetch.rateDist::stdev             3.237731                       # Number of instructions fetched each cycle (Total)
system.cpu.fetch.rateDist::underflows               0      0.00%      0.00% # Number of instructions fetched each cycle (Total)
system.cpu.fetch.rateDist::0                  2396730     42.22%     42.22% # Number of instructions fetched each cycle (Total)
system.cpu.fetch.rateDist::1                   452993      7.98%     50.21% # Number of instructions fetched each cycle (Total)
system.cpu.fetch.rateDist::2                   369078      6.50%     56.71% # Number of instructions fetched each cycle (Total)
system.cpu.fetch.rateDist::3                   406398      7.16%     63.87% # Number of instructions fetched each cycle (Total)
system.cpu.fetch.rateDist::4                   231026      4.07%     67.94% # Number of instructions fetched each cycle (Total)
system.cpu.fetch.rateDist::5                   163119      2.87%     70.81% # Number of instructions fetched each cycle (Total)
system.cpu.fetch.rateDist::6                   210457      3.71%     74.52% # Number of instructions fetched each cycle (Total)
system.cpu.fetch.rateDist::7                   350909      6.18%     80.70% # Number of instructions fetched each cycle (Total)
system.cpu.fetch.rateDist::8                  1095461     19.30%    100.00% # Number of instructions fetched each cycle (Total)
system.cpu.fetch.rateDist::overflows                0      0.00%    100.00% # Number of instructions fetched each cycle (Total)
system.cpu.fetch.rateDist::min_value                0                       # Number of instructions fetched each cycle (Total)
system.cpu.fetch.rateDist::max_value                8                       # Number of instructions fetched each cycle (Total)
system.cpu.fetch.rateDist::total              5676171                       # Number of instructions fetched each cycle (Total)
system.cpu.fetch.branchRate                  0.445495                       # Number of branch fetches per cycle
system.cpu.fetch.rate                        2.455597                       # Number of inst fetches per cycle
system.cpu.decode.IdleCycles                  1607310                       # Number of cycles decode is idle
system.cpu.decode.BlockedCycles               1190136                       # Number of cycles decode is blocked
system.cpu.decode.RunCycles                   2405481                       # Number of cycles decode is running
system.cpu.decode.UnblockCycles                396582                       # Number of cycles decode is unblocking
system.cpu.decode.SquashCycles                  76662                       # Number of cycles decode is squashing
system.cpu.decode.BranchResolved               551286                       # Number of times decode resolved a branch
system.cpu.decode.BranchMispred                   343                       # Number of times decode detected a branch misprediction
system.cpu.decode.DecodedInsts               15950191                       # Number of instructions handled by decode
system.cpu.decode.SquashedInsts                  1172                       # Number of squashed instructions handled by decode
system.cpu.rename.SquashCycles                  76662                       # Number of cycles rename is squashing
system.cpu.rename.IdleCycles                  1789128                       # Number of cycles rename is idle
system.cpu.rename.BlockCycles                  410125                       # Number of cycles rename is blocking
system.cpu.rename.serializeStallCycles           4364                       # count of cycles rename stalled for serializing inst
system.cpu.rename.RunCycles                   2619847                       # Number of cycles rename is running
system.cpu.rename.UnblockCycles                776045                       # Number of cycles rename is unblocking
system.cpu.rename.RenamedInsts               15678660                       # Number of instructions processed by rename
system.cpu.rename.ROBFullEvents                    13                       # Number of times rename has blocked due to ROB full
system.cpu.rename.IQFullEvents                 707713                       # Number of times rename has blocked due to IQ full
system.cpu.rename.LQFullEvents                     30                       # Number of times rename has blocked due to LQ full
system.cpu.rename.SQFullEvents                   3467                       # Number of times rename has blocked due to SQ full
system.cpu.rename.RenamedOperands            21466671                       # Number of destination operands rename has renamed
system.cpu.rename.RenameLookups              75167705                       # Number of register rename lookups that rename has made
system.cpu.rename.int_rename_lookups         23061713                       # Number of integer rename lookups
system.cpu.rename.fp_rename_lookups                48                       # Number of floating rename lookups
system.cpu.rename.CommittedMaps              16214243                       # Number of HB maps that are committed
system.cpu.rename.UndoneMaps                  5252384                       # Number of HB maps that are undone due to squashing
system.cpu.rename.serializingInsts                 96                       # count of serializing insts renamed
system.cpu.rename.tempSerializingInsts             96                       # count of temporary serializing insts renamed
system.cpu.rename.skidInsts                   1670569                       # count of insts added to the skid buffer
system.cpu.memDep0.insertedLoads               943693                       # Number of loads inserted to the mem dependence unit.
system.cpu.memDep0.insertedStores             1164414                       # Number of stores inserted to the mem dependence unit.
system.cpu.memDep0.conflictingLoads             43772                       # Number of conflicting loads.
system.cpu.memDep0.conflictingStores           672879                       # Number of conflicting stores.
system.cpu.iq.iqInstsAdded                   15221833                       # Number of instructions added to the IQ (excludes non-spec)
system.cpu.iq.iqNonSpecInstsAdded                 150                       # Number of non-speculative instructions added to the IQ
system.cpu.iq.iqInstsIssued                  13062863                       # Number of instructions issued
system.cpu.iq.iqSquashedInstsIssued              1537                       # Number of squashed instructions issued
system.cpu.iq.iqSquashedInstsExamined         3406766                       # Number of squashed instructions iterated over during squash; mainly for profiling
system.cpu.iq.iqSquashedOperandsExamined     11979030                       # Number of squashed operands that are examined and possibly removed from graph
system.cpu.iq.iqSquashedNonSpecRemoved             10                       # Number of squashed non-spec instructions that were removed
system.cpu.iq.issued_per_cycle::samples       5676171                       # Number of insts issued each cycle
system.cpu.iq.issued_per_cycle::mean         2.301351                       # Number of insts issued each cycle
system.cpu.iq.issued_per_cycle::stdev        1.859148                       # Number of insts issued each cycle
system.cpu.iq.issued_per_cycle::underflows            0      0.00%      0.00% # Number of insts issued each cycle
system.cpu.iq.issued_per_cycle::0              966476     17.03%     17.03% # Number of insts issued each cycle
system.cpu.iq.issued_per_cycle::1             1293008     22.78%     39.81% # Number of insts issued each cycle
system.cpu.iq.issued_per_cycle::2             1313476     23.14%     62.95% # Number of insts issued each cycle
system.cpu.iq.issued_per_cycle::3              590619     10.41%     73.35% # Number of insts issued each cycle
system.cpu.iq.issued_per_cycle::4              800260     14.10%     87.45% # Number of insts issued each cycle
system.cpu.iq.issued_per_cycle::5              303171      5.34%     92.79% # Number of insts issued each cycle
system.cpu.iq.issued_per_cycle::6              268179      4.72%     97.52% # Number of insts issued each cycle
system.cpu.iq.issued_per_cycle::7               82779      1.46%     98.97% # Number of insts issued each cycle
system.cpu.iq.issued_per_cycle::8               58203      1.03%    100.00% # Number of insts issued each cycle
system.cpu.iq.issued_per_cycle::overflows            0      0.00%    100.00% # Number of insts issued each cycle
system.cpu.iq.issued_per_cycle::min_value            0                       # Number of insts issued each cycle
system.cpu.iq.issued_per_cycle::max_value            8                       # Number of insts issued each cycle
system.cpu.iq.issued_per_cycle::total         5676171                       # Number of insts issued each cycle
system.cpu.iq.fu_full::No_OpClass                   0      0.00%      0.00% # attempts to use FU when none available
system.cpu.iq.fu_full::IntAlu                  126923     82.75%     82.75% # attempts to use FU when none available
system.cpu.iq.fu_full::IntMult                      0      0.00%     82.75% # attempts to use FU when none available
system.cpu.iq.fu_full::IntDiv                       0      0.00%     82.75% # attempts to use FU when none available
system.cpu.iq.fu_full::FloatAdd                     0      0.00%     82.75% # attempts to use FU when none available
system.cpu.iq.fu_full::FloatCmp                     0      0.00%     82.75% # attempts to use FU when none available
system.cpu.iq.fu_full::FloatCvt                     0      0.00%     82.75% # attempts to use FU when none available
system.cpu.iq.fu_full::FloatMult                    0      0.00%     82.75% # attempts to use FU when none available
system.cpu.iq.fu_full::FloatDiv                     0      0.00%     82.75% # attempts to use FU when none available
system.cpu.iq.fu_full::FloatSqrt                    0      0.00%     82.75% # attempts to use FU when none available
system.cpu.iq.fu_full::SimdAdd                      0      0.00%     82.75% # attempts to use FU when none available
system.cpu.iq.fu_full::SimdAddAcc                   0      0.00%     82.75% # attempts to use FU when none available
system.cpu.iq.fu_full::SimdAlu                      0      0.00%     82.75% # attempts to use FU when none available
system.cpu.iq.fu_full::SimdCmp                      0      0.00%     82.75% # attempts to use FU when none available
system.cpu.iq.fu_full::SimdCvt                      0      0.00%     82.75% # attempts to use FU when none available
system.cpu.iq.fu_full::SimdMisc                     0      0.00%     82.75% # attempts to use FU when none available
system.cpu.iq.fu_full::SimdMult                     0      0.00%     82.75% # attempts to use FU when none available
system.cpu.iq.fu_full::SimdMultAcc                  0      0.00%     82.75% # attempts to use FU when none available
system.cpu.iq.fu_full::SimdShift                    0      0.00%     82.75% # attempts to use FU when none available
system.cpu.iq.fu_full::SimdShiftAcc                 0      0.00%     82.75% # attempts to use FU when none available
system.cpu.iq.fu_full::SimdSqrt                     0      0.00%     82.75% # attempts to use FU when none available
system.cpu.iq.fu_full::SimdFloatAdd                 0      0.00%     82.75% # attempts to use FU when none available
system.cpu.iq.fu_full::SimdFloatAlu                 0      0.00%     82.75% # attempts to use FU when none available
system.cpu.iq.fu_full::SimdFloatCmp                 0      0.00%     82.75% # attempts to use FU when none available
system.cpu.iq.fu_full::SimdFloatCvt                 0      0.00%     82.75% # attempts to use FU when none available
system.cpu.iq.fu_full::SimdFloatDiv                 0      0.00%     82.75% # attempts to use FU when none available
system.cpu.iq.fu_full::SimdFloatMisc                0      0.00%     82.75% # attempts to use FU when none available
system.cpu.iq.fu_full::SimdFloatMult                0      0.00%     82.75% # attempts to use FU when none available
system.cpu.iq.fu_full::SimdFloatMultAcc             0      0.00%     82.75% # attempts to use FU when none available
system.cpu.iq.fu_full::SimdFloatSqrt                0      0.00%     82.75% # attempts to use FU when none available
system.cpu.iq.fu_full::MemRead                  11044      7.20%     89.95% # attempts to use FU when none available
system.cpu.iq.fu_full::MemWrite                 15411     10.05%    100.00% # attempts to use FU when none available
system.cpu.iq.fu_full::IprAccess                    0      0.00%    100.00% # attempts to use FU when none available
system.cpu.iq.fu_full::InstPrefetch                 0      0.00%    100.00% # attempts to use FU when none available
system.cpu.iq.FU_type_0::No_OpClass                 0      0.00%      0.00% # Type of FU issued
system.cpu.iq.FU_type_0::IntAlu              11072938     84.77%     84.77% # Type of FU issued
system.cpu.iq.FU_type_0::IntMult               125564      0.96%     85.73% # Type of FU issued
system.cpu.iq.FU_type_0::IntDiv                     0      0.00%     85.73% # Type of FU issued
system.cpu.iq.FU_type_0::FloatAdd                   0      0.00%     85.73% # Type of FU issued
system.cpu.iq.FU_type_0::FloatCmp                   0      0.00%     85.73% # Type of FU issued
system.cpu.iq.FU_type_0::FloatCvt                   0      0.00%     85.73% # Type of FU issued
system.cpu.iq.FU_type_0::FloatMult                  0      0.00%     85.73% # Type of FU issued
system.cpu.iq.FU_type_0::FloatDiv                   0      0.00%     85.73% # Type of FU issued
system.cpu.iq.FU_type_0::FloatSqrt                  0      0.00%     85.73% # Type of FU issued
system.cpu.iq.FU_type_0::SimdAdd                    0      0.00%     85.73% # Type of FU issued
system.cpu.iq.FU_type_0::SimdAddAcc                 0      0.00%     85.73% # Type of FU issued
system.cpu.iq.FU_type_0::SimdAlu                    0      0.00%     85.73% # Type of FU issued
system.cpu.iq.FU_type_0::SimdCmp                    0      0.00%     85.73% # Type of FU issued
system.cpu.iq.FU_type_0::SimdCvt                    0      0.00%     85.73% # Type of FU issued
system.cpu.iq.FU_type_0::SimdMisc                   0      0.00%     85.73% # Type of FU issued
system.cpu.iq.FU_type_0::SimdMult                   0      0.00%     85.73% # Type of FU issued
system.cpu.iq.FU_type_0::SimdMultAcc                0      0.00%     85.73% # Type of FU issued
system.cpu.iq.FU_type_0::SimdShift                  0      0.00%     85.73% # Type of FU issued
system.cpu.iq.FU_type_0::SimdShiftAcc               0      0.00%     85.73% # Type of FU issued
system.cpu.iq.FU_type_0::SimdSqrt                   0      0.00%     85.73% # Type of FU issued
system.cpu.iq.FU_type_0::SimdFloatAdd               0      0.00%     85.73% # Type of FU issued
system.cpu.iq.FU_type_0::SimdFloatAlu               0      0.00%     85.73% # Type of FU issued
system.cpu.iq.FU_type_0::SimdFloatCmp               0      0.00%     85.73% # Type of FU issued
system.cpu.iq.FU_type_0::SimdFloatCvt               0      0.00%     85.73% # Type of FU issued
system.cpu.iq.FU_type_0::SimdFloatDiv               0      0.00%     85.73% # Type of FU issued
system.cpu.iq.FU_type_0::SimdFloatMisc              0      0.00%     85.73% # Type of FU issued
system.cpu.iq.FU_type_0::SimdFloatMult              0      0.00%     85.73% # Type of FU issued
system.cpu.iq.FU_type_0::SimdFloatMultAcc            0      0.00%     85.73% # Type of FU issued
system.cpu.iq.FU_type_0::SimdFloatSqrt              0      0.00%     85.73% # Type of FU issued
system.cpu.iq.FU_type_0::MemRead               903662      6.92%     92.65% # Type of FU issued
system.cpu.iq.FU_type_0::MemWrite              960699      7.35%    100.00% # Type of FU issued
system.cpu.iq.FU_type_0::IprAccess                  0      0.00%    100.00% # Type of FU issued
system.cpu.iq.FU_type_0::InstPrefetch               0      0.00%    100.00% # Type of FU issued
system.cpu.iq.FU_type_0::total               13062863                       # Type of FU issued
system.cpu.iq.rate                           2.278637                       # Inst issue rate
system.cpu.iq.fu_busy_cnt                      153378                       # FU busy when requested
system.cpu.iq.fu_busy_rate                   0.011742                       # FU busy rate (busy events/executed inst)
system.cpu.iq.int_inst_queue_reads           31956739                       # Number of integer instruction queue reads
system.cpu.iq.int_inst_queue_writes          18628746                       # Number of integer instruction queue writes
system.cpu.iq.int_inst_queue_wakeup_accesses     12838376                       # Number of integer instruction queue wakeup accesses
system.cpu.iq.fp_inst_queue_reads                  72                       # Number of floating instruction queue reads
system.cpu.iq.fp_inst_queue_writes                 80                       # Number of floating instruction queue writes
system.cpu.iq.fp_inst_queue_wakeup_accesses           32                       # Number of floating instruction queue wakeup accesses
system.cpu.iq.int_alu_accesses               13216201                       # Number of integer alu accesses
system.cpu.iq.fp_alu_accesses                      40                       # Number of floating point alu accesses
system.cpu.iew.lsq.thread0.forwLoads             1217                       # Number of loads that had data forwarded from stores
system.cpu.iew.lsq.thread0.invAddrLoads             0                       # Number of loads ignored due to an invalid address
system.cpu.iew.lsq.thread0.squashedLoads       235316                       # Number of loads squashed
system.cpu.iew.lsq.thread0.ignoredResponses            5                       # Number of memory responses ignored because the instruction is squashed
system.cpu.iew.lsq.thread0.memOrderViolation           87                       # Number of memory ordering violations
system.cpu.iew.lsq.thread0.squashedStores       256859                       # Number of stores squashed
system.cpu.iew.lsq.thread0.invAddrSwpfs             0                       # Number of software prefetches ignored due to an invalid address
system.cpu.iew.lsq.thread0.blockedLoads             0                       # Number of blocked loads due to partial load-store forwarding
system.cpu.iew.lsq.thread0.rescheduledLoads        73101                       # Number of loads that were rescheduled
system.cpu.iew.lsq.thread0.cacheBlocked            19                       # Number of times an access to memory failed due to the cache being blocked
system.cpu.iew.iewIdleCycles                        0                       # Number of cycles IEW is idle
system.cpu.iew.iewSquashCycles                  76662                       # Number of cycles IEW is squashing
system.cpu.iew.iewBlockCycles                  381917                       # Number of cycles IEW is blocking
system.cpu.iew.iewUnblockCycles                    66                       # Number of cycles IEW is unblocking
system.cpu.iew.iewDispatchedInsts            15222048                       # Number of instructions dispatched to IQ
system.cpu.iew.iewDispSquashedInsts              1551                       # Number of squashed instructions skipped by dispatch
system.cpu.iew.iewDispLoadInsts                943693                       # Number of dispatched load instructions
system.cpu.iew.iewDispStoreInsts              1164414                       # Number of dispatched store instructions
system.cpu.iew.iewDispNonSpecInsts                 90                       # Number of dispatched non-speculative instructions
system.cpu.iew.iewIQFullEvents                     10                       # Number of times the IQ has become full, causing a stall
system.cpu.iew.iewLSQFullEvents                    54                       # Number of times the LSQ has become full, causing a stall
system.cpu.iew.memOrderViolationEvents             87                       # Number of memory order violations
system.cpu.iew.predictedTakenIncorrect          41340                       # Number of branches that were predicted taken incorrectly
system.cpu.iew.predictedNotTakenIncorrect        35428                       # Number of branches that were predicted not taken incorrectly
system.cpu.iew.branchMispredicts                76768                       # Number of branch mispredicts detected at execute
system.cpu.iew.iewExecutedInsts              12986702                       # Number of executed instructions
system.cpu.iew.iewExecLoadInsts                888312                       # Number of load instructions executed
system.cpu.iew.iewExecSquashedInsts             76160                       # Number of squashed instructions skipped in execute
system.cpu.iew.exec_swp                             0                       # number of swp insts executed
system.cpu.iew.exec_nop                            65                       # number of nop insts executed
system.cpu.iew.exec_refs                      1834481                       # number of memory reference insts executed
system.cpu.iew.exec_branches                  2029415                       # Number of branches executed
system.cpu.iew.exec_stores                     946169                       # Number of stores executed
system.cpu.iew.exec_rate                     2.265351                       # Inst execution rate
system.cpu.iew.wb_sent                       12871399                       # cumulative count of insts sent to commit
system.cpu.iew.wb_count                      12838408                       # cumulative count of insts written-back
system.cpu.iew.wb_producers                   8933348                       # num instructions producing a value
system.cpu.iew.wb_consumers                  27037770                       # num instructions consuming a value
system.cpu.iew.wb_penalized                         0                       # number of instrctions required to write to 'other' IQ
system.cpu.iew.wb_rate                       2.239484                       # insts written-back per cycle
system.cpu.iew.wb_fanout                     0.330403                       # average fanout of values written-back
system.cpu.iew.wb_penalized_rate                    0                       # fraction of instructions written-back that wrote to 'other' IQ
system.cpu.commit.commitSquashedInsts         3406839                       # The number of squashed insts skipped by commit
system.cpu.commit.commitNonSpecStalls             140                       # The number of times commit has been forced to stall to communicate backwards
system.cpu.commit.branchMispredicts             76596                       # The number of times a branch was mispredicted
system.cpu.commit.committed_per_cycle::samples      5218005                       # Number of insts commited each cycle
system.cpu.commit.committed_per_cycle::mean     2.264312                       # Number of insts commited each cycle
system.cpu.commit.committed_per_cycle::stdev     2.232709                       # Number of insts commited each cycle
system.cpu.commit.committed_per_cycle::underflows            0      0.00%      0.00% # Number of insts commited each cycle
system.cpu.commit.committed_per_cycle::0       923830     17.70%     17.70% # Number of insts commited each cycle
system.cpu.commit.committed_per_cycle::1      1755578     33.64%     51.35% # Number of insts commited each cycle
system.cpu.commit.committed_per_cycle::2       802869     15.39%     66.74% # Number of insts commited each cycle
system.cpu.commit.committed_per_cycle::3       658559     12.62%     79.36% # Number of insts commited each cycle
system.cpu.commit.committed_per_cycle::4       286504      5.49%     84.85% # Number of insts commited each cycle
system.cpu.commit.committed_per_cycle::5       213007      4.08%     88.93% # Number of insts commited each cycle
system.cpu.commit.committed_per_cycle::6       151642      2.91%     91.84% # Number of insts commited each cycle
system.cpu.commit.committed_per_cycle::7        50833      0.97%     92.81% # Number of insts commited each cycle
system.cpu.commit.committed_per_cycle::8       375183      7.19%    100.00% # Number of insts commited each cycle
system.cpu.commit.committed_per_cycle::overflows            0      0.00%    100.00% # Number of insts commited each cycle
system.cpu.commit.committed_per_cycle::min_value            0                       # Number of insts commited each cycle
system.cpu.commit.committed_per_cycle::max_value            8                       # Number of insts commited each cycle
system.cpu.commit.committed_per_cycle::total      5218005                       # Number of insts commited each cycle
system.cpu.commit.committedInsts             10000004                       # Number of instructions committed
system.cpu.commit.committedOps               11815191                       # Number of ops (including micro ops) committed
system.cpu.commit.swp_count                         0                       # Number of s/w prefetches committed
system.cpu.commit.refs                        1615930                       # Number of memory references committed
system.cpu.commit.loads                        708375                       # Number of loads committed
system.cpu.commit.membars                          60                       # Number of memory barriers committed
system.cpu.commit.branches                    1869008                       # Number of branches committed
system.cpu.commit.fp_insts                         16                       # Number of committed floating point instructions.
system.cpu.commit.int_insts                  10732648                       # Number of committed integer instructions.
system.cpu.commit.function_calls               412030                       # Number of function calls committed.
system.cpu.commit.op_class_0::No_OpClass            0      0.00%      0.00% # Class of committed instruction
system.cpu.commit.op_class_0::IntAlu         10084975     85.36%     85.36% # Class of committed instruction
system.cpu.commit.op_class_0::IntMult          114286      0.97%     86.32% # Class of committed instruction
system.cpu.commit.op_class_0::IntDiv                0      0.00%     86.32% # Class of committed instruction
system.cpu.commit.op_class_0::FloatAdd              0      0.00%     86.32% # Class of committed instruction
system.cpu.commit.op_class_0::FloatCmp              0      0.00%     86.32% # Class of committed instruction
system.cpu.commit.op_class_0::FloatCvt              0      0.00%     86.32% # Class of committed instruction
system.cpu.commit.op_class_0::FloatMult             0      0.00%     86.32% # Class of committed instruction
system.cpu.commit.op_class_0::FloatDiv              0      0.00%     86.32% # Class of committed instruction
system.cpu.commit.op_class_0::FloatSqrt             0      0.00%     86.32% # Class of committed instruction
system.cpu.commit.op_class_0::SimdAdd               0      0.00%     86.32% # Class of committed instruction
system.cpu.commit.op_class_0::SimdAddAcc            0      0.00%     86.32% # Class of committed instruction
system.cpu.commit.op_class_0::SimdAlu               0      0.00%     86.32% # Class of committed instruction
system.cpu.commit.op_class_0::SimdCmp               0      0.00%     86.32% # Class of committed instruction
system.cpu.commit.op_class_0::SimdCvt               0      0.00%     86.32% # Class of committed instruction
system.cpu.commit.op_class_0::SimdMisc              0      0.00%     86.32% # Class of committed instruction
system.cpu.commit.op_class_0::SimdMult              0      0.00%     86.32% # Class of committed instruction
system.cpu.commit.op_class_0::SimdMultAcc            0      0.00%     86.32% # Class of committed instruction
system.cpu.commit.op_class_0::SimdShift             0      0.00%     86.32% # Class of committed instruction
system.cpu.commit.op_class_0::SimdShiftAcc            0      0.00%     86.32% # Class of committed instruction
system.cpu.commit.op_class_0::SimdSqrt              0      0.00%     86.32% # Class of committed instruction
system.cpu.commit.op_class_0::SimdFloatAdd            0      0.00%     86.32% # Class of committed instruction
system.cpu.commit.op_class_0::SimdFloatAlu            0      0.00%     86.32% # Class of committed instruction
system.cpu.commit.op_class_0::SimdFloatCmp            0      0.00%     86.32% # Class of committed instruction
system.cpu.commit.op_class_0::SimdFloatCvt            0      0.00%     86.32% # Class of committed instruction
system.cpu.commit.op_class_0::SimdFloatDiv            0      0.00%     86.32% # Class of committed instruction
system.cpu.commit.op_class_0::SimdFloatMisc            0      0.00%     86.32% # Class of committed instruction
system.cpu.commit.op_class_0::SimdFloatMult            0      0.00%     86.32% # Class of committed instruction
system.cpu.commit.op_class_0::SimdFloatMultAcc            0      0.00%     86.32% # Class of committed instruction
system.cpu.commit.op_class_0::SimdFloatSqrt            0      0.00%     86.32% # Class of committed instruction
system.cpu.commit.op_class_0::MemRead          708375      6.00%     92.32% # Class of committed instruction
system.cpu.commit.op_class_0::MemWrite         907555      7.68%    100.00% # Class of committed instruction
system.cpu.commit.op_class_0::IprAccess             0      0.00%    100.00% # Class of committed instruction
system.cpu.commit.op_class_0::InstPrefetch            0      0.00%    100.00% # Class of committed instruction
[...]
system.cpu.dcache.blocked::no_mshrs                 7                       # number of cycles access was blocked
system.cpu.dcache.blocked::no_targets               0                       # number of cycles access was blocked
system.cpu.dcache.avg_blocked_cycles::no_mshrs    68.714286                       # average number of cycles each access was blocked
system.cpu.dcache.avg_blocked_cycles::no_targets          nan                       # average number of cycles each access was blocked
system.cpu.dcache.fast_writes                       0                       # number of fast writes performed
system.cpu.dcache.cache_copies                      0                       # number of cache copies performed
system.cpu.dcache.writebacks::writebacks          217                       # number of writebacks
system.cpu.dcache.writebacks::total               217                       # number of writebacks
system.cpu.dcache.ReadReq_mshr_hits::cpu.data          191                       # number of ReadReq MSHR hits
system.cpu.dcache.ReadReq_mshr_hits::total          191                       # number of ReadReq MSHR hits
system.cpu.dcache.WriteReq_mshr_hits::cpu.data          335                       # number of WriteReq MSHR hits
system.cpu.dcache.WriteReq_mshr_hits::total          335                       # number of WriteReq MSHR hits
system.cpu.dcache.LoadLockedReq_mshr_hits::cpu.data            5                       # number of LoadLockedReq MSHR hits
system.cpu.dcache.LoadLockedReq_mshr_hits::total            5                       # number of LoadLockedReq MSHR hits
system.cpu.dcache.demand_mshr_hits::cpu.data          526                       # number of demand (read+write) MSHR hits
system.cpu.dcache.demand_mshr_hits::total          526                       # number of demand (read+write) MSHR hits
system.cpu.dcache.overall_mshr_hits::cpu.data          526                       # number of overall MSHR hits
system.cpu.dcache.overall_mshr_hits::total          526                       # number of overall MSHR hits
system.cpu.dcache.ReadReq_mshr_misses::cpu.data          245                       # number of ReadReq MSHR misses
system.cpu.dcache.ReadReq_mshr_misses::total          245                       # number of ReadReq MSHR misses
system.cpu.dcache.WriteReq_mshr_misses::cpu.data          240                       # number of WriteReq MSHR misses
system.cpu.dcache.WriteReq_mshr_misses::total          240                       # number of WriteReq MSHR misses
system.cpu.dcache.demand_mshr_misses::cpu.data          485                       # number of demand (read+write) MSHR misses
system.cpu.dcache.demand_mshr_misses::total          485                       # number of demand (read+write) MSHR misses
system.cpu.dcache.overall_mshr_misses::cpu.data          485                       # number of overall MSHR misses
system.cpu.dcache.overall_mshr_misses::total          485                       # number of overall MSHR misses
system.cpu.dcache.ReadReq_mshr_miss_latency::cpu.data     12569500                       # number of ReadReq MSHR miss cycles
system.cpu.dcache.ReadReq_mshr_miss_latency::total     12569500                       # number of ReadReq MSHR miss cycles
system.cpu.dcache.WriteReq_mshr_miss_latency::cpu.data     14212500                       # number of WriteReq MSHR miss cycles
system.cpu.dcache.WriteReq_mshr_miss_latency::total     14212500                       # number of WriteReq MSHR miss cycles
system.cpu.dcache.demand_mshr_miss_latency::cpu.data     26782000                       # number of demand (read+write) MSHR miss cycles
system.cpu.dcache.demand_mshr_miss_latency::total     26782000                       # number of demand (read+write) MSHR miss cycles
system.cpu.dcache.overall_mshr_miss_latency::cpu.data     26782000                       # number of overall MSHR miss cycles
system.cpu.dcache.overall_mshr_miss_latency::total     26782000                       # number of overall MSHR miss cycles
system.cpu.dcache.ReadReq_mshr_miss_rate::cpu.data     0.000299                       # mshr miss rate for ReadReq accesses
system.cpu.dcache.ReadReq_mshr_miss_rate::total     0.000299                       # mshr miss rate for ReadReq accesses
system.cpu.dcache.WriteReq_mshr_miss_rate::cpu.data     0.000264                       # mshr miss rate for WriteReq accesses
system.cpu.dcache.WriteReq_mshr_miss_rate::total     0.000264                       # mshr miss rate for WriteReq accesses
system.cpu.dcache.demand_mshr_miss_rate::cpu.data     0.000281                       # mshr miss rate for demand accesses
system.cpu.dcache.demand_mshr_miss_rate::total     0.000281                       # mshr miss rate for demand accesses
system.cpu.dcache.overall_mshr_miss_rate::cpu.data     0.000281                       # mshr miss rate for overall accesses
system.cpu.dcache.overall_mshr_miss_rate::total     0.000281                       # mshr miss rate for overall accesses
system.cpu.dcache.ReadReq_avg_mshr_miss_latency::cpu.data 51304.081633                       # average ReadReq mshr miss latency
system.cpu.dcache.ReadReq_avg_mshr_miss_latency::total 51304.081633                       # average ReadReq mshr miss latency
system.cpu.dcache.WriteReq_avg_mshr_miss_latency::cpu.data 59218.750000                       # average WriteReq mshr miss latency
system.cpu.dcache.WriteReq_avg_mshr_miss_latency::total 59218.750000                       # average WriteReq mshr miss latency
system.cpu.dcache.demand_avg_mshr_miss_latency::cpu.data 55220.618557                       # average overall mshr miss latency
system.cpu.dcache.demand_avg_mshr_miss_latency::total 55220.618557                       # average overall mshr miss latency
system.cpu.dcache.overall_avg_mshr_miss_latency::cpu.data 55220.618557                       # average overall mshr miss latency
system.cpu.dcache.overall_avg_mshr_miss_latency::total 55220.618557                       # average overall mshr miss latency
system.cpu.dcache.no_allocate_misses                0                       # Number of misses that were no-allocate
system.cpu.icache.tags.replacements              1017                       # number of replacements
system.cpu.icache.tags.tagsinuse            63.953570                       # Cycle average of tags in use
system.cpu.icache.tags.total_refs             2157590                       # Total number of references to valid blocks.
system.cpu.icache.tags.sampled_refs              1081                       # Sample count of references to valid blocks.
system.cpu.icache.tags.avg_refs           1995.920444                       # Average number of references to valid blocks.
system.cpu.icache.tags.warmup_cycle           6242250                       # Cycle when the warmup percentage was hit.
system.cpu.icache.tags.occ_blocks::cpu.inst    63.953570                       # Average occupied blocks per requestor
system.cpu.icache.tags.occ_percent::cpu.inst     0.999275                       # Average percentage of cache occupancy
system.cpu.icache.tags.occ_percent::total     0.999275                       # Average percentage of cache occupancy
system.cpu.icache.tags.occ_task_id_blocks::1024           64                       # Occupied blocks per task id
system.cpu.icache.tags.age_task_id_blocks_1024::3           64                       # Occupied blocks per task id
system.cpu.icache.tags.occ_task_id_percent::1024            1                       # Percentage of cache occupancy per task id
system.cpu.icache.tags.tag_accesses           4318969                       # Number of tag accesses
system.cpu.icache.tags.data_accesses          4318969                       # Number of data accesses
system.cpu.icache.ReadReq_hits::cpu.inst      2157590                       # number of ReadReq hits
system.cpu.icache.ReadReq_hits::total         2157590                       # number of ReadReq hits
system.cpu.icache.demand_hits::cpu.inst       2157590                       # number of demand (read+write) hits
system.cpu.icache.demand_hits::total          2157590                       # number of demand (read+write) hits
system.cpu.icache.overall_hits::cpu.inst      2157590                       # number of overall hits
system.cpu.icache.overall_hits::total         2157590                       # number of overall hits
system.cpu.icache.ReadReq_misses::cpu.inst         1354                       # number of ReadReq misses
system.cpu.icache.ReadReq_misses::total          1354                       # number of ReadReq misses
system.cpu.icache.demand_misses::cpu.inst         1354                       # number of demand (read+write) misses
system.cpu.icache.demand_misses::total           1354                       # number of demand (read+write) misses
system.cpu.icache.overall_misses::cpu.inst         1354                       # number of overall misses
system.cpu.icache.overall_misses::total          1354                       # number of overall misses
system.cpu.icache.ReadReq_miss_latency::cpu.inst     69212247                       # number of ReadReq miss cycles
system.cpu.icache.ReadReq_miss_latency::total     69212247                       # number of ReadReq miss cycles
system.cpu.icache.demand_miss_latency::cpu.inst     69212247                       # number of demand (read+write) miss cycles
system.cpu.icache.demand_miss_latency::total     69212247                       # number of demand (read+write) miss cycles
system.cpu.icache.overall_miss_latency::cpu.inst     69212247                       # number of overall miss cycles
system.cpu.icache.overall_miss_latency::total     69212247                       # number of overall miss cycles
system.cpu.icache.ReadReq_accesses::cpu.inst      2158944                       # number of ReadReq accesses(hits+misses)
system.cpu.icache.ReadReq_accesses::total      2158944                       # number of ReadReq accesses(hits+misses)
system.cpu.icache.demand_accesses::cpu.inst      2158944                       # number of demand (read+write) accesses
system.cpu.icache.demand_accesses::total      2158944                       # number of demand (read+write) accesses
system.cpu.icache.overall_accesses::cpu.inst      2158944                       # number of overall (read+write) accesses
system.cpu.icache.overall_accesses::total      2158944                       # number of overall (read+write) accesses
system.cpu.icache.ReadReq_miss_rate::cpu.inst     0.000627                       # miss rate for ReadReq accesses
system.cpu.icache.ReadReq_miss_rate::total     0.000627                       # miss rate for ReadReq accesses
system.cpu.icache.demand_miss_rate::cpu.inst     0.000627                       # miss rate for demand accesses
system.cpu.icache.demand_miss_rate::total     0.000627                       # miss rate for demand accesses
system.cpu.icache.overall_miss_rate::cpu.inst     0.000627                       # miss rate for overall accesses
system.cpu.icache.overall_miss_rate::total     0.000627                       # miss rate for overall accesses
system.cpu.icache.ReadReq_avg_miss_latency::cpu.inst 51116.873708                       # average ReadReq miss latency
system.cpu.icache.ReadReq_avg_miss_latency::total 51116.873708                       # average ReadReq miss latency
system.cpu.icache.demand_avg_miss_latency::cpu.inst 51116.873708                       # average overall miss latency
system.cpu.icache.demand_avg_miss_latency::total 51116.873708                       # average overall miss latency
system.cpu.icache.overall_avg_miss_latency::cpu.inst 51116.873708                       # average overall miss latency
system.cpu.icache.overall_avg_miss_latency::total 51116.873708                       # average overall miss latency
system.cpu.icache.blocked_cycles::no_mshrs          780                       # number of cycles access was blocked
system.cpu.icache.blocked_cycles::no_targets            0                       # number of cycles access was blocked
system.cpu.icache.blocked::no_mshrs                23                       # number of cycles access was blocked
system.cpu.icache.blocked::no_targets               0                       # number of cycles access was blocked
system.cpu.icache.avg_blocked_cycles::no_mshrs    33.913043                       # average number of cycles each access was blocked
system.cpu.icache.avg_blocked_cycles::no_targets          nan                       # average number of cycles each access was blocked
system.cpu.icache.fast_writes                       0                       # number of fast writes performed
system.cpu.icache.cache_copies                      0                       # number of cache copies performed
system.cpu.icache.ReadReq_mshr_hits::cpu.inst          273                       # number of ReadReq MSHR hits
system.cpu.icache.ReadReq_mshr_hits::total          273                       # number of ReadReq MSHR hits
system.cpu.icache.demand_mshr_hits::cpu.inst          273                       # number of demand (read+write) MSHR hits
system.cpu.icache.demand_mshr_hits::total          273                       # number of demand (read+write) MSHR hits
system.cpu.icache.overall_mshr_hits::cpu.inst          273                       # number of overall MSHR hits
system.cpu.icache.overall_mshr_hits::total          273                       # number of overall MSHR hits
system.cpu.icache.ReadReq_mshr_misses::cpu.inst         1081                       # number of ReadReq MSHR misses
system.cpu.icache.ReadReq_mshr_misses::total         1081                       # number of ReadReq MSHR misses
system.cpu.icache.demand_mshr_misses::cpu.inst         1081                       # number of demand (read+write) MSHR misses
system.cpu.icache.demand_mshr_misses::total         1081                       # number of demand (read+write) MSHR misses
system.cpu.icache.overall_mshr_misses::cpu.inst         1081                       # number of overall MSHR misses
system.cpu.icache.overall_mshr_misses::total         1081                       # number of overall MSHR misses
system.cpu.icache.ReadReq_mshr_miss_latency::cpu.inst     56322998                       # number of ReadReq MSHR miss cycles
system.cpu.icache.ReadReq_mshr_miss_latency::total     56322998                       # number of ReadReq MSHR miss cycles
system.cpu.icache.demand_mshr_miss_latency::cpu.inst     56322998                       # number of demand (read+write) MSHR miss cycles
system.cpu.icache.demand_mshr_miss_latency::total     56322998                       # number of demand (read+write) MSHR miss cycles
system.cpu.icache.overall_mshr_miss_latency::cpu.inst     56322998                       # number of overall MSHR miss cycles
system.cpu.icache.overall_mshr_miss_latency::total     56322998                       # number of overall MSHR miss cycles
system.cpu.icache.ReadReq_mshr_miss_rate::cpu.inst     0.000501                       # mshr miss rate for ReadReq accesses
system.cpu.icache.ReadReq_mshr_miss_rate::total     0.000501                       # mshr miss rate for ReadReq accesses
system.cpu.icache.demand_mshr_miss_rate::cpu.inst     0.000501                       # mshr miss rate for demand accesses
system.cpu.icache.demand_mshr_miss_rate::total     0.000501                       # mshr miss rate for demand accesses
system.cpu.icache.overall_mshr_miss_rate::cpu.inst     0.000501                       # mshr miss rate for overall accesses
system.cpu.icache.overall_mshr_miss_rate::total     0.000501                       # mshr miss rate for overall accesses
system.cpu.icache.ReadReq_avg_mshr_miss_latency::cpu.inst 52102.680851                       # average ReadReq mshr miss latency
system.cpu.icache.ReadReq_avg_mshr_miss_latency::total 52102.680851                       # average ReadReq mshr miss latency
system.cpu.icache.demand_avg_mshr_miss_latency::cpu.inst 52102.680851                       # average overall mshr miss latency
system.cpu.icache.demand_avg_mshr_miss_latency::total 52102.680851                       # average overall mshr miss latency
system.cpu.icache.overall_avg_mshr_miss_latency::cpu.inst 52102.680851                       # average overall mshr miss latency
system.cpu.icache.overall_avg_mshr_miss_latency::total 52102.680851                       # average overall mshr miss latency
system.cpu.icache.no_allocate_misses                0                       # Number of misses that were no-allocate
system.membus.trans_dist::ReadReq                1326                       # Transaction distribution
system.membus.trans_dist::ReadResp               1326                       # Transaction distribution
system.membus.trans_dist::Writeback               217                       # Transaction distribution
system.membus.trans_dist::ReadExReq               240                       # Transaction distribution
system.membus.trans_dist::ReadExResp              240                       # Transaction distribution
system.membus.pkt_count_system.cpu.icache.mem_side::system.mem_ctrls.port         2162                       # Packet count per connected master and slave (bytes)
system.membus.pkt_count_system.cpu.dcache.mem_side::system.mem_ctrls.port         1187                       # Packet count per connected master and slave (bytes)
system.membus.pkt_count::total                   3349                       # Packet count per connected master and slave (bytes)
system.membus.pkt_size_system.cpu.icache.mem_side::system.mem_ctrls.port        69184                       # Cumulative packet size per connected master and slave (bytes)
system.membus.pkt_size_system.cpu.dcache.mem_side::system.mem_ctrls.port        44928                       # Cumulative packet size per connected master and slave (bytes)
system.membus.pkt_size::total                  114112                       # Cumulative packet size per connected master and slave (bytes)
system.membus.snoops                                0                       # Total snoops (count)
system.membus.snoop_fanout::samples              1783                       # Request fanout histogram
system.membus.snoop_fanout::mean                    1                       # Request fanout histogram
system.membus.snoop_fanout::stdev                   0                       # Request fanout histogram
system.membus.snoop_fanout::underflows              0      0.00%      0.00% # Request fanout histogram
system.membus.snoop_fanout::0                       0      0.00%      0.00% # Request fanout histogram
system.membus.snoop_fanout::1                    1783    100.00%    100.00% # Request fanout histogram
system.membus.snoop_fanout::2                       0      0.00%    100.00% # Request fanout histogram
system.membus.snoop_fanout::overflows               0      0.00%    100.00% # Request fanout histogram
system.membus.snoop_fanout::min_value               1                       # Request fanout histogram
system.membus.snoop_fanout::max_value               1                       # Request fanout histogram
system.membus.snoop_fanout::total                1783                       # Request fanout histogram
system.membus.reqLayer0.occupancy             1325500                       # Layer occupancy (ticks)
system.membus.reqLayer0.utilization               0.0                       # Layer utilization (%)
system.membus.respLayer1.occupancy            2948000                       # Layer occupancy (ticks)
system.membus.respLayer1.utilization              0.1                       # Layer utilization (%)
system.membus.respLayer2.occupancy            1271500                       # Layer occupancy (ticks)
system.membus.respLayer2.utilization              0.0                       # Layer utilization (%)

---------- End Simulation Statistics   ----------
