
---------- Begin Simulation Statistics ----------
sim_seconds                                  0.004472                       # Number of seconds simulated
sim_ticks                                  4471872000                       # Number of ticks simulated
final_tick                                 4471872000                       # Number of ticks from beginning of simulation (restored from checkpoints and never reset)
sim_freq                                 1000000000000                       # Frequency of simulated ticks
host_inst_rate                                 202601                       # Simulator instruction rate (inst/s)
host_op_rate                                   236269                       # Simulator op (including micro ops) rate (op/s)
host_tick_rate                              199641052                       # Simulator tick rate (ticks/s)
host_mem_usage                                 653604                       # Number of bytes of host memory used
host_seconds                                    22.40                       # Real time elapsed on the host
sim_insts                                     4538148                       # Number of instructions simulated
sim_ops                                       5292292                       # Number of ops (including micro ops) simulated
system.voltage_domain.voltage                       1                       # Voltage in Volts
system.clk_domain.clock                           500                       # Clock period in ticks
system.mem_ctrls.bytes_read::cpu.inst         4644224                       # Number of bytes read from this memory
system.mem_ctrls.bytes_read::cpu.data           64256                       # Number of bytes read from this memory
system.mem_ctrls.bytes_read::total            4708480                       # Number of bytes read from this memory
system.mem_ctrls.bytes_inst_read::cpu.inst      4644224                       # Number of instructions bytes read from this memory
system.mem_ctrls.bytes_inst_read::total       4644224                       # Number of instructions bytes read from this memory
system.mem_ctrls.bytes_written::writebacks        37632                       # Number of bytes written to this memory
system.mem_ctrls.bytes_written::total           37632                       # Number of bytes written to this memory
system.mem_ctrls.num_reads::cpu.inst            72566                       # Number of read requests responded to by this memory
system.mem_ctrls.num_reads::cpu.data             1004                       # Number of read requests responded to by this memory
system.mem_ctrls.num_reads::total               73570                       # Number of read requests responded to by this memory
system.mem_ctrls.num_writes::writebacks           588                       # Number of write requests responded to by this memory
system.mem_ctrls.num_writes::total                588                       # Number of write requests responded to by this memory
system.mem_ctrls.bw_read::cpu.inst         1038541354                       # Total read bandwidth from this memory (bytes/s)
system.mem_ctrls.bw_read::cpu.data           14368926                       # Total read bandwidth from this memory (bytes/s)
system.mem_ctrls.bw_read::total            1052910280                       # Total read bandwidth from this memory (bytes/s)
system.mem_ctrls.bw_inst_read::cpu.inst    1038541354                       # Instruction read bandwidth from this memory (bytes/s)
system.mem_ctrls.bw_inst_read::total       1038541354                       # Instruction read bandwidth from this memory (bytes/s)
system.mem_ctrls.bw_write::writebacks         8415268                       # Write bandwidth from this memory (bytes/s)
system.mem_ctrls.bw_write::total              8415268                       # Write bandwidth from this memory (bytes/s)
system.mem_ctrls.bw_total::writebacks         8415268                       # Total bandwidth to/from this memory (bytes/s)
system.mem_ctrls.bw_total::cpu.inst        1038541354                       # Total bandwidth to/from this memory (bytes/s)
system.mem_ctrls.bw_total::cpu.data          14368926                       # Total bandwidth to/from this memory (bytes/s)
system.mem_ctrls.bw_total::total           1061325548                       # Total bandwidth to/from this memory (bytes/s)
system.mem_ctrls.readReqs                       73571                       # Number of read requests accepted
system.mem_ctrls.writeReqs                        588                       # Number of write requests accepted
system.mem_ctrls.readBursts                     73571                       # Number of DRAM read bursts, including those serviced by the write queue
system.mem_ctrls.writeBursts                      588                       # Number of DRAM write bursts, including those merged in the write queue
system.mem_ctrls.bytesReadDRAM                4707264                       # Total number of bytes read from DRAM
system.mem_ctrls.bytesReadWrQ                    1280                       # Total number of bytes read from write queue
system.mem_ctrls.bytesWritten                   36352                       # Total number of bytes written to DRAM
system.mem_ctrls.bytesReadSys                 4708544                       # Total read bytes from the system interface side
system.mem_ctrls.bytesWrittenSys                37632                       # Total written bytes from the system interface side
system.mem_ctrls.servicedByWrQ                     20                       # Number of DRAM read bursts serviced by the write queue
system.mem_ctrls.mergedWrBursts                     3                       # Number of DRAM write bursts merged with an existing one
system.mem_ctrls.neitherReadNorWriteReqs            0                       # Number of requests that are neither read nor write
system.mem_ctrls.perBankRdBursts::0              2668                       # Per bank write bursts
system.mem_ctrls.perBankRdBursts::1              9350                       # Per bank write bursts
system.mem_ctrls.perBankRdBursts::2             14374                       # Per bank write bursts
system.mem_ctrls.perBankRdBursts::3              8571                       # Per bank write bursts
system.mem_ctrls.perBankRdBursts::4              2052                       # Per bank write bursts
system.mem_ctrls.perBankRdBursts::5                50                       # Per bank write bursts
system.mem_ctrls.perBankRdBursts::6                95                       # Per bank write bursts
system.mem_ctrls.perBankRdBursts::7              8487                       # Per bank write bursts
system.mem_ctrls.perBankRdBursts::8             26837                       # Per bank write bursts
system.mem_ctrls.perBankRdBursts::9                48                       # Per bank write bursts
system.mem_ctrls.perBankRdBursts::10              169                       # Per bank write bursts
system.mem_ctrls.perBankRdBursts::11              181                       # Per bank write bursts
system.mem_ctrls.perBankRdBursts::12              167                       # Per bank write bursts
system.mem_ctrls.perBankRdBursts::13              209                       # Per bank write bursts
system.mem_ctrls.perBankRdBursts::14              153                       # Per bank write bursts
system.mem_ctrls.perBankRdBursts::15              140                       # Per bank write bursts
system.mem_ctrls.perBankWrBursts::0                11                       # Per bank write bursts
system.mem_ctrls.perBankWrBursts::1               104                       # Per bank write bursts
system.mem_ctrls.perBankWrBursts::2                88                       # Per bank write bursts
system.mem_ctrls.perBankWrBursts::3                23                       # Per bank write bursts
system.mem_ctrls.perBankWrBursts::4                 0                       # Per bank write bursts
system.mem_ctrls.perBankWrBursts::5                 0                       # Per bank write bursts
system.mem_ctrls.perBankWrBursts::6                 2                       # Per bank write bursts
system.mem_ctrls.perBankWrBursts::7                48                       # Per bank write bursts
system.mem_ctrls.perBankWrBursts::8                23                       # Per bank write bursts
system.mem_ctrls.perBankWrBursts::9                 7                       # Per bank write bursts
system.mem_ctrls.perBankWrBursts::10                4                       # Per bank write bursts
system.mem_ctrls.perBankWrBursts::11              105                       # Per bank write bursts
system.mem_ctrls.perBankWrBursts::12              102                       # Per bank write bursts
system.mem_ctrls.perBankWrBursts::13               51                       # Per bank write bursts
system.mem_ctrls.perBankWrBursts::14                0                       # Per bank write bursts
system.mem_ctrls.perBankWrBursts::15                0                       # Per bank write bursts
system.mem_ctrls.numRdRetry                         0                       # Number of times read queue was full causing retry
system.mem_ctrls.numWrRetry                         0                       # Number of times write queue was full causing retry
system.mem_ctrls.totGap                    4471863500                       # Total gap between requests
system.mem_ctrls.readPktSize::0                     0                       # Read request sizes (log2)
system.mem_ctrls.readPktSize::1                     0                       # Read request sizes (log2)
system.mem_ctrls.readPktSize::2                     0                       # Read request sizes (log2)
system.mem_ctrls.readPktSize::3                     0                       # Read request sizes (log2)
system.mem_ctrls.readPktSize::4                     0                       # Read request sizes (log2)
system.mem_ctrls.readPktSize::5                     0                       # Read request sizes (log2)
system.mem_ctrls.readPktSize::6                 73571                       # Read request sizes (log2)
system.mem_ctrls.writePktSize::0                    0                       # Write request sizes (log2)
system.mem_ctrls.writePktSize::1                    0                       # Write request sizes (log2)
system.mem_ctrls.writePktSize::2                    0                       # Write request sizes (log2)
system.mem_ctrls.writePktSize::3                    0                       # Write request sizes (log2)
system.mem_ctrls.writePktSize::4                    0                       # Write request sizes (log2)
system.mem_ctrls.writePktSize::5                    0                       # Write request sizes (log2)
system.mem_ctrls.writePktSize::6                  588                       # Write request sizes (log2)
system.mem_ctrls.rdQLenPdf::0                   67536                       # What read queue length does an incoming req see
system.mem_ctrls.rdQLenPdf::1                    5566                       # What read queue length does an incoming req see
system.mem_ctrls.rdQLenPdf::2                     391                       # What read queue length does an incoming req see
system.mem_ctrls.rdQLenPdf::3                      46                       # What read queue length does an incoming req see
system.mem_ctrls.rdQLenPdf::4                      11                       # What read queue length does an incoming req see
system.mem_ctrls.rdQLenPdf::5                       1                       # What read queue length does an incoming req see
system.mem_ctrls.rdQLenPdf::6                       0                       # What read queue length does an incoming req see
system.mem_ctrls.rdQLenPdf::7                       0                       # What read queue length does an incoming req see
system.mem_ctrls.rdQLenPdf::8                       0                       # What read queue length does an incoming req see
system.mem_ctrls.rdQLenPdf::9                       0                       # What read queue length does an incoming req see
system.mem_ctrls.rdQLenPdf::10                      0                       # What read queue length does an incoming req see
system.mem_ctrls.rdQLenPdf::11                      0                       # What read queue length does an incoming req see
system.mem_ctrls.rdQLenPdf::12                      0                       # What read queue length does an incoming req see
system.mem_ctrls.rdQLenPdf::13                      0                       # What read queue length does an incoming req see
system.mem_ctrls.rdQLenPdf::14                      0                       # What read queue length does an incoming req see
system.mem_ctrls.rdQLenPdf::15                      0                       # What read queue length does an incoming req see
system.mem_ctrls.rdQLenPdf::16                      0                       # What read queue length does an incoming req see
system.mem_ctrls.rdQLenPdf::17                      0                       # What read queue length does an incoming req see
system.mem_ctrls.rdQLenPdf::18                      0                       # What read queue length does an incoming req see
system.mem_ctrls.rdQLenPdf::19                      0                       # What read queue length does an incoming req see
system.mem_ctrls.rdQLenPdf::20                      0                       # What read queue length does an incoming req see
system.mem_ctrls.rdQLenPdf::21                      0                       # What read queue length does an incoming req see
system.mem_ctrls.rdQLenPdf::22                      0                       # What read queue length does an incoming req see
system.mem_ctrls.rdQLenPdf::23                      0                       # What read queue length does an incoming req see
system.mem_ctrls.rdQLenPdf::24                      0                       # What read queue length does an incoming req see
system.mem_ctrls.rdQLenPdf::25                      0                       # What read queue length does an incoming req see
system.mem_ctrls.rdQLenPdf::26                      0                       # What read queue length does an incoming req see
system.mem_ctrls.rdQLenPdf::27                      0                       # What read queue length does an incoming req see
system.mem_ctrls.rdQLenPdf::28                      0                       # What read queue length does an incoming req see
system.mem_ctrls.rdQLenPdf::29                      0                       # What read queue length does an incoming req see
system.mem_ctrls.rdQLenPdf::30                      0                       # What read queue length does an incoming req see
system.mem_ctrls.rdQLenPdf::31                      0                       # What read queue length does an incoming req see
system.mem_ctrls.wrQLenPdf::0                       1                       # What write queue length does an incoming req see
system.mem_ctrls.wrQLenPdf::1                       1                       # What write queue length does an incoming req see
system.mem_ctrls.wrQLenPdf::2                       1                       # What write queue length does an incoming req see
system.mem_ctrls.wrQLenPdf::3                       1                       # What write queue length does an incoming req see
system.mem_ctrls.wrQLenPdf::4                       1                       # What write queue length does an incoming req see
system.mem_ctrls.wrQLenPdf::5                       1                       # What write queue length does an incoming req see
system.mem_ctrls.wrQLenPdf::6                       1                       # What write queue length does an incoming req see
system.mem_ctrls.wrQLenPdf::7                       1                       # What write queue length does an incoming req see
system.mem_ctrls.wrQLenPdf::8                       1                       # What write queue length does an incoming req see
system.mem_ctrls.wrQLenPdf::9                       1                       # What write queue length does an incoming req see
system.mem_ctrls.wrQLenPdf::10                      1                       # What write queue length does an incoming req see
system.mem_ctrls.wrQLenPdf::11                      1                       # What write queue length does an incoming req see
system.mem_ctrls.wrQLenPdf::12                      1                       # What write queue length does an incoming req see
system.mem_ctrls.wrQLenPdf::13                      1                       # What write queue length does an incoming req see
system.mem_ctrls.wrQLenPdf::14                      1                       # What write queue length does an incoming req see
system.mem_ctrls.wrQLenPdf::15                     13                       # What write queue length does an incoming req see
system.mem_ctrls.wrQLenPdf::16                     13                       # What write queue length does an incoming req see
system.mem_ctrls.wrQLenPdf::17                     34                       # What write queue length does an incoming req see
system.mem_ctrls.wrQLenPdf::18                     34                       # What write queue length does an incoming req see
system.mem_ctrls.wrQLenPdf::19                     34                       # What write queue length does an incoming req see
system.mem_ctrls.wrQLenPdf::20                     34                       # What write queue length does an incoming req see
system.mem_ctrls.wrQLenPdf::21                     34                       # What write queue length does an incoming req see
system.mem_ctrls.wrQLenPdf::22                     34                       # What write queue length does an incoming req see
system.mem_ctrls.wrQLenPdf::23                     34                       # What write queue length does an incoming req see
system.mem_ctrls.wrQLenPdf::24                     34                       # What write queue length does an incoming req see
system.mem_ctrls.wrQLenPdf::25                     34                       # What write queue length does an incoming req see
system.mem_ctrls.wrQLenPdf::26                     34                       # What write queue length does an incoming req see
system.mem_ctrls.wrQLenPdf::27                     34                       # What write queue length does an incoming req see
system.mem_ctrls.wrQLenPdf::28                     34                       # What write queue length does an incoming req see
system.mem_ctrls.wrQLenPdf::29                     34                       # What write queue length does an incoming req see
system.mem_ctrls.wrQLenPdf::30                     34                       # What write queue length does an incoming req see
system.mem_ctrls.wrQLenPdf::31                     34                       # What write queue length does an incoming req see
system.mem_ctrls.wrQLenPdf::32                     34                       # What write queue length does an incoming req see
system.mem_ctrls.wrQLenPdf::33                      0                       # What write queue length does an incoming req see
system.mem_ctrls.wrQLenPdf::34                      0                       # What write queue length does an incoming req see
system.mem_ctrls.wrQLenPdf::35                      0                       # What write queue length does an incoming req see
system.mem_ctrls.wrQLenPdf::36                      0                       # What write queue length does an incoming req see
system.mem_ctrls.wrQLenPdf::37                      0                       # What write queue length does an incoming req see
system.mem_ctrls.wrQLenPdf::38                      0                       # What write queue length does an incoming req see
system.mem_ctrls.wrQLenPdf::39                      0                       # What write queue length does an incoming req see
system.mem_ctrls.wrQLenPdf::40                      0                       # What write queue length does an incoming req see
system.mem_ctrls.wrQLenPdf::41                      0                       # What write queue length does an incoming req see
system.mem_ctrls.wrQLenPdf::42                      0                       # What write queue length does an incoming req see
system.mem_ctrls.wrQLenPdf::43                      0                       # What write queue length does an incoming req see
system.mem_ctrls.wrQLenPdf::44                      0                       # What write queue length does an incoming req see
system.mem_ctrls.wrQLenPdf::45                      0                       # What write queue length does an incoming req see
system.mem_ctrls.wrQLenPdf::46                      0                       # What write queue length does an incoming req see
system.mem_ctrls.wrQLenPdf::47                      0                       # What write queue length does an incoming req see
system.mem_ctrls.wrQLenPdf::48                      0                       # What write queue length does an incoming req see
system.mem_ctrls.wrQLenPdf::49                      0                       # What write queue length does an incoming req see
system.mem_ctrls.wrQLenPdf::50                      0                       # What write queue length does an incoming req see
system.mem_ctrls.wrQLenPdf::51                      0                       # What write queue length does an incoming req see
system.mem_ctrls.wrQLenPdf::52                      0                       # What write queue length does an incoming req see
system.mem_ctrls.wrQLenPdf::53                      0                       # What write queue length does an incoming req see
system.mem_ctrls.wrQLenPdf::54                      0                       # What write queue length does an incoming req see
system.mem_ctrls.wrQLenPdf::55                      0                       # What write queue length does an incoming req see
system.mem_ctrls.wrQLenPdf::56                      0                       # What write queue length does an incoming req see
system.mem_ctrls.wrQLenPdf::57                      0                       # What write queue length does an incoming req see
system.mem_ctrls.wrQLenPdf::58                      0                       # What write queue length does an incoming req see
system.mem_ctrls.wrQLenPdf::59                      0                       # What write queue length does an incoming req see
system.mem_ctrls.wrQLenPdf::60                      0                       # What write queue length does an incoming req see
system.mem_ctrls.wrQLenPdf::61                      0                       # What write queue length does an incoming req see
system.mem_ctrls.wrQLenPdf::62                      0                       # What write queue length does an incoming req see
system.mem_ctrls.wrQLenPdf::63                      0                       # What write queue length does an incoming req see
system.mem_ctrls.bytesPerActivate::samples         7236                       # Bytes accessed per row activation
system.mem_ctrls.bytesPerActivate::mean    654.859038                       # Bytes accessed per row activation
system.mem_ctrls.bytesPerActivate::gmean   483.124552                       # Bytes accessed per row activation
system.mem_ctrls.bytesPerActivate::stdev   372.980578                       # Bytes accessed per row activation
system.mem_ctrls.bytesPerActivate::0-127          744     10.28%     10.28% # Bytes accessed per row activation
system.mem_ctrls.bytesPerActivate::128-255          778     10.75%     21.03% # Bytes accessed per row activation
system.mem_ctrls.bytesPerActivate::256-383          617      8.53%     29.56% # Bytes accessed per row activation
system.mem_ctrls.bytesPerActivate::384-511          519      7.17%     36.73% # Bytes accessed per row activation
system.mem_ctrls.bytesPerActivate::512-639          433      5.98%     42.72% # Bytes accessed per row activation
system.mem_ctrls.bytesPerActivate::640-767          414      5.72%     48.44% # Bytes accessed per row activation
system.mem_ctrls.bytesPerActivate::768-895          426      5.89%     54.33% # Bytes accessed per row activation
system.mem_ctrls.bytesPerActivate::896-1023          537      7.42%     61.75% # Bytes accessed per row activation
system.mem_ctrls.bytesPerActivate::1024-1151         2768     38.25%    100.00% # Bytes accessed per row activation
system.mem_ctrls.bytesPerActivate::total         7236                       # Bytes accessed per row activation
system.mem_ctrls.rdPerTurnAround::samples           34                       # Reads before turning the bus around for writes
system.mem_ctrls.rdPerTurnAround::mean    2162.500000                       # Reads before turning the bus around for writes
system.mem_ctrls.rdPerTurnAround::gmean    601.888558                       # Reads before turning the bus around for writes
system.mem_ctrls.rdPerTurnAround::stdev   2076.582146                       # Reads before turning the bus around for writes
system.mem_ctrls.rdPerTurnAround::0-255            11     32.35%     32.35% # Reads before turning the bus around for writes
system.mem_ctrls.rdPerTurnAround::512-767            2      5.88%     38.24% # Reads before turning the bus around for writes
system.mem_ctrls.rdPerTurnAround::768-1023            2      5.88%     44.12% # Reads before turning the bus around for writes
system.mem_ctrls.rdPerTurnAround::1024-1279            2      5.88%     50.00% # Reads before turning the bus around for writes
system.mem_ctrls.rdPerTurnAround::1280-1535            1      2.94%     52.94% # Reads before turning the bus around for writes
system.mem_ctrls.rdPerTurnAround::1792-2047            2      5.88%     58.82% # Reads before turning the bus around for writes
system.mem_ctrls.rdPerTurnAround::3072-3327            1      2.94%     61.76% # Reads before turning the bus around for writes
system.mem_ctrls.rdPerTurnAround::3328-3583            3      8.82%     70.59% # Reads before turning the bus around for writes
system.mem_ctrls.rdPerTurnAround::3840-4095            1      2.94%     73.53% # Reads before turning the bus around for writes
system.mem_ctrls.rdPerTurnAround::4352-4607            3      8.82%     82.35% # Reads before turning the bus around for writes
system.mem_ctrls.rdPerTurnAround::4864-5119            3      8.82%     91.18% # Reads before turning the bus around for writes
system.mem_ctrls.rdPerTurnAround::5120-5375            1      2.94%     94.12% # Reads before turning the bus around for writes
system.mem_ctrls.rdPerTurnAround::5376-5631            1      2.94%     97.06% # Reads before turning the bus around for writes
system.mem_ctrls.rdPerTurnAround::5632-5887            1      2.94%    100.00% # Reads before turning the bus around for writes
system.mem_ctrls.rdPerTurnAround::total            34                       # Reads before turning the bus around for writes
system.mem_ctrls.wrPerTurnAround::samples           34                       # Writes before turning the bus around for reads
system.mem_ctrls.wrPerTurnAround::mean      16.705882                       # Writes before turning the bus around for reads
system.mem_ctrls.wrPerTurnAround::gmean     16.679146                       # Writes before turning the bus around for reads
system.mem_ctrls.wrPerTurnAround::stdev      0.970143                       # Writes before turning the bus around for reads
system.mem_ctrls.wrPerTurnAround::16               22     64.71%     64.71% # Writes before turning the bus around for reads
system.mem_ctrls.wrPerTurnAround::18               12     35.29%    100.00% # Writes before turning the bus around for reads
system.mem_ctrls.wrPerTurnAround::total            34                       # Writes before turning the bus around for reads
system.mem_ctrls.totQLat                    275095000                       # Total ticks spent queuing
system.mem_ctrls.totMemAccLat              1654176250                       # Total ticks spent from burst creation until serviced by the DRAM
system.mem_ctrls.totBusLat                  367755000                       # Total ticks spent in databus transfers
system.mem_ctrls.avgQLat                      3740.19                       # Average queueing delay per DRAM burst
system.mem_ctrls.avgBusLat                    5000.00                       # Average bus latency per DRAM burst
system.mem_ctrls.avgMemAccLat                22490.19                       # Average memory access latency per DRAM burst
system.mem_ctrls.avgRdBW                      1052.64                       # Average DRAM read bandwidth in MiByte/s
system.mem_ctrls.avgWrBW                         8.13                       # Average achieved write bandwidth in MiByte/s
system.mem_ctrls.avgRdBWSys                   1052.92                       # Average system read bandwidth in MiByte/s
system.mem_ctrls.avgWrBWSys                      8.42                       # Average system write bandwidth in MiByte/s
system.mem_ctrls.peakBW                      12800.00                       # Theoretical peak bandwidth in MiByte/s
system.mem_ctrls.busUtil                         8.29                       # Data bus utilization in percentage
system.mem_ctrls.busUtilRead                     8.22                       # Data bus utilization in percentage for reads
system.mem_ctrls.busUtilWrite                    0.06                       # Data bus utilization in percentage for writes
system.mem_ctrls.avgRdQLen                       1.08                       # Average read queue length when enqueuing
system.mem_ctrls.avgWrQLen                      25.18                       # Average write queue length when enqueuing
system.mem_ctrls.readRowHits                    66366                       # Number of row buffer hits during reads
system.mem_ctrls.writeRowHits                     503                       # Number of row buffer hits during writes
system.mem_ctrls.readRowHitRate                 90.23                       # Row buffer hit rate for reads
system.mem_ctrls.writeRowHitRate                85.98                       # Row buffer hit rate for writes
system.mem_ctrls.avgGap                      60301.02                       # Average gap between requests
system.mem_ctrls.pageHitRate                    90.20                       # Row buffer hit rate, read and write combined
system.mem_ctrls_0.actEnergy                 37414440                       # Energy for activate commands per rank (pJ)
system.mem_ctrls_0.preEnergy                 20414625                       # Energy for precharge commands per rank (pJ)
system.mem_ctrls_0.readEnergy               355781400                       # Energy for read commands per rank (pJ)
system.mem_ctrls_0.writeEnergy                1697760                       # Energy for write commands per rank (pJ)
system.mem_ctrls_0.refreshEnergy            291913440                       # Energy for refresh commands per rank (pJ)
system.mem_ctrls_0.actBackEnergy           2981080620                       # Energy for active background per rank (pJ)
system.mem_ctrls_0.preBackEnergy             66757500                       # Energy for precharge background per rank (pJ)
system.mem_ctrls_0.totalEnergy             3755059785                       # Total energy per rank (pJ)
system.mem_ctrls_0.averagePower            840.139406                       # Core power per rank (mW)
system.mem_ctrls_0.memoryStateTime::IDLE     95673750                       # Time in different power states
system.mem_ctrls_0.memoryStateTime::REF     149240000                       # Time in different power states
system.mem_ctrls_0.memoryStateTime::PRE_PDN            0                       # Time in different power states
system.mem_ctrls_0.memoryStateTime::ACT    4224855250                       # Time in different power states
system.mem_ctrls_0.memoryStateTime::ACT_PDN            0                       # Time in different power states
system.mem_ctrls_1.actEnergy                 17259480                       # Energy for activate commands per rank (pJ)
system.mem_ctrls_1.preEnergy                  9417375                       # Energy for precharge commands per rank (pJ)
system.mem_ctrls_1.readEnergy               217237800                       # Energy for read commands per rank (pJ)
system.mem_ctrls_1.writeEnergy                1879200                       # Energy for write commands per rank (pJ)
system.mem_ctrls_1.refreshEnergy            291913440                       # Energy for refresh commands per rank (pJ)
system.mem_ctrls_1.actBackEnergy           2859298695                       # Energy for active background per rank (pJ)
system.mem_ctrls_1.preBackEnergy            173583750                       # Energy for precharge background per rank (pJ)
system.mem_ctrls_1.totalEnergy             3570589740                       # Total energy per rank (pJ)
system.mem_ctrls_1.averagePower            798.866946                       # Core power per rank (mW)
system.mem_ctrls_1.memoryStateTime::IDLE    256917000                       # Time in different power states
system.mem_ctrls_1.memoryStateTime::REF     149240000                       # Time in different power states
system.mem_ctrls_1.memoryStateTime::PRE_PDN            0                       # Time in different power states
system.mem_ctrls_1.memoryStateTime::ACT    4063424250                       # Time in different power states
system.mem_ctrls_1.memoryStateTime::ACT_PDN            0                       # Time in different power states
system.cpu.branchPred.lookups                 1291072                       # Number of BP lookups
system.cpu.branchPred.condPredicted            928690                       # Number of conditional branches predicted
system.cpu.branchPred.condIncorrect             73078                       # Number of conditional branches incorrect
system.cpu.branchPred.BTBLookups               552289                       # Number of BTB lookups
system.cpu.branchPred.BTBHits                  511399                       # Number of BTB hits
system.cpu.branchPred.BTBCorrect                    0                       # Number of correct BTB predictions (this stat may not work properly.
system.cpu.branchPred.BTBHitPct             92.596268                       # BTB Hit Percentage
system.cpu.branchPred.usedRAS                  166329                       # Number of times the RAS was used to get a target.
system.cpu.branchPred.RASInCorrect               4193                       # Number of incorrect RAS predictions.
system.cpu_voltage_domain.voltage                   1                       # Voltage in Volts
system.cpu_clk_domain.clock                       500                       # Clock period in ticks
system.cpu.dstage2_mmu.stage2_tlb.walker.walks            0                       # Table walker walks requested
system.cpu.dstage2_mmu.stage2_tlb.walker.walkRequestOrigin_Requested::Data            0                       # Table walker requests started/completed, data/inst
system.cpu.dstage2_mmu.stage2_tlb.walker.walkRequestOrigin_Requested::Inst            0                       # Table walker requests started/completed, data/inst
system.cpu.dstage2_mmu.stage2_tlb.walker.walkRequestOrigin_Requested::total            0                       # Table walker requests started/completed, data/inst
system.cpu.dstage2_mmu.stage2_tlb.walker.walkRequestOrigin_Completed::Data            0                       # Table walker requests started/completed, data/inst
system.cpu.dstage2_mmu.stage2_tlb.walker.walkRequestOrigin_Completed::Inst            0                       # Table walker requests started/completed, data/inst
system.cpu.dstage2_mmu.stage2_tlb.walker.walkRequestOrigin_Completed::total            0                       # Table walker requests started/completed, data/inst
system.cpu.dstage2_mmu.stage2_tlb.walker.walkRequestOrigin::total            0                       # Table walker requests started/completed, data/inst
system.cpu.dstage2_mmu.stage2_tlb.inst_hits            0                       # ITB inst hits
system.cpu.dstage2_mmu.stage2_tlb.inst_misses            0                       # ITB inst misses
system.cpu.dstage2_mmu.stage2_tlb.read_hits            0                       # DTB read hits
system.cpu.dstage2_mmu.stage2_tlb.read_misses            0                       # DTB read misses
system.cpu.dstage2_mmu.stage2_tlb.write_hits            0                       # DTB write hits
system.cpu.dstage2_mmu.stage2_tlb.write_misses            0                       # DTB write misses
system.cpu.dstage2_mmu.stage2_tlb.flush_tlb            0                       # Number of times complete TLB was flushed
system.cpu.dstage2_mmu.stage2_tlb.flush_tlb_mva            0                       # Number of times TLB was flushed by MVA
system.cpu.dstage2_mmu.stage2_tlb.flush_tlb_mva_asid            0                       # Number of times TLB was flushed by MVA & ASID
system.cpu.dstage2_mmu.stage2_tlb.flush_tlb_asid            0                       # Number of times TLB was flushed by ASID
system.cpu.dstage2_mmu.stage2_tlb.flush_entries            0                       # Number of entries that have been flushed from TLB
system.cpu.dstage2_mmu.stage2_tlb.align_faults            0                       # Number of TLB faults due to alignment restrictions
system.cpu.dstage2_mmu.stage2_tlb.prefetch_faults            0                       # Number of TLB faults due to prefetch
system.cpu.dstage2_mmu.stage2_tlb.domain_faults            0                       # Number of TLB faults due to domain restrictions
system.cpu.dstage2_mmu.stage2_tlb.perms_faults            0                       # Number of TLB faults due to permissions restrictions
system.cpu.dstage2_mmu.stage2_tlb.read_accesses            0                       # DTB read accesses
system.cpu.dstage2_mmu.stage2_tlb.write_accesses            0                       # DTB write accesses
system.cpu.dstage2_mmu.stage2_tlb.inst_accesses            0                       # ITB inst accesses
system.cpu.dstage2_mmu.stage2_tlb.hits              0                       # DTB hits
system.cpu.dstage2_mmu.stage2_tlb.misses            0                       # DTB misses
system.cpu.dstage2_mmu.stage2_tlb.accesses            0                       # DTB accesses
system.cpu.dtb.walker.walks                         0                       # Table walker walks requested
system.cpu.dtb.walker.walkRequestOrigin_Requested::Data            0                       # Table walker requests started/completed, data/inst
system.cpu.dtb.walker.walkRequestOrigin_Requested::Inst            0                       # Table walker requests started/completed, data/inst
system.cpu.dtb.walker.walkRequestOrigin_Requested::total            0                       # Table walker requests started/completed, data/inst
system.cpu.dtb.walker.walkRequestOrigin_Completed::Data            0                       # Table walker requests started/completed, data/inst
system.cpu.dtb.walker.walkRequestOrigin_Completed::Inst            0                       # Table walker requests started/completed, data/inst
system.cpu.dtb.walker.walkRequestOrigin_Completed::total            0                       # Table walker requests started/completed, data/inst
system.cpu.dtb.walker.walkRequestOrigin::total            0                       # Table walker requests started/completed, data/inst
system.cpu.dtb.inst_hits                            0                       # ITB inst hits
system.cpu.dtb.inst_misses                          0                       # ITB inst misses
system.cpu.dtb.read_hits                            0                       # DTB read hits
system.cpu.dtb.read_misses                          0                       # DTB read misses
system.cpu.dtb.write_hits                           0                       # DTB write hits
system.cpu.dtb.write_misses                         0                       # DTB write misses
system.cpu.dtb.flush_tlb                            0                       # Number of times complete TLB was flushed
system.cpu.dtb.flush_tlb_mva                        0                       # Number of times TLB was flushed by MVA
system.cpu.dtb.flush_tlb_mva_asid                   0                       # Number of times TLB was flushed by MVA & ASID
system.cpu.dtb.flush_tlb_asid                       0                       # Number of times TLB was flushed by ASID
system.cpu.dtb.flush_entries                        0                       # Number of entries that have been flushed from TLB
system.cpu.dtb.align_faults                         0                       # Number of TLB faults due to alignment restrictions
system.cpu.dtb.prefetch_faults                      0                       # Number of TLB faults due to prefetch
system.cpu.dtb.domain_faults                        0                       # Number of TLB faults due to domain restrictions
system.cpu.dtb.perms_faults                         0                       # Number of TLB faults due to permissions restrictions
system.cpu.dtb.read_accesses                        0                       # DTB read accesses
system.cpu.dtb.write_accesses                       0                       # DTB write accesses
system.cpu.dtb.inst_accesses                        0                       # ITB inst accesses
system.cpu.dtb.hits                                 0                       # DTB hits
system.cpu.dtb.misses                               0                       # DTB misses
system.cpu.dtb.accesses                             0                       # DTB accesses
system.cpu.istage2_mmu.stage2_tlb.walker.walks            0                       # Table walker walks requested
system.cpu.istage2_mmu.stage2_tlb.walker.walkRequestOrigin_Requested::Data            0                       # Table walker requests started/completed, data/inst
system.cpu.istage2_mmu.stage2_tlb.walker.walkRequestOrigin_Requested::Inst            0                       # Table walker requests started/completed, data/inst
system.cpu.istage2_mmu.stage2_tlb.walker.walkRequestOrigin_Requested::total            0                       # Table walker requests started/completed, data/inst
system.cpu.istage2_mmu.stage2_tlb.walker.walkRequestOrigin_Completed::Data            0                       # Table walker requests started/completed, data/inst
system.cpu.istage2_mmu.stage2_tlb.walker.walkRequestOrigin_Completed::Inst            0                       # Table walker requests started/completed, data/inst
system.cpu.istage2_mmu.stage2_tlb.walker.walkRequestOrigin_Completed::total            0                       # Table walker requests started/completed, data/inst
system.cpu.istage2_mmu.stage2_tlb.walker.walkRequestOrigin::total            0                       # Table walker requests started/completed, data/inst
system.cpu.istage2_mmu.stage2_tlb.inst_hits            0                       # ITB inst hits
system.cpu.istage2_mmu.stage2_tlb.inst_misses            0                       # ITB inst misses
system.cpu.istage2_mmu.stage2_tlb.read_hits            0                       # DTB read hits
system.cpu.istage2_mmu.stage2_tlb.read_misses            0                       # DTB read misses
system.cpu.istage2_mmu.stage2_tlb.write_hits            0                       # DTB write hits
system.cpu.istage2_mmu.stage2_tlb.write_misses            0                       # DTB write misses
system.cpu.istage2_mmu.stage2_tlb.flush_tlb            0                       # Number of times complete TLB was flushed
system.cpu.istage2_mmu.stage2_tlb.flush_tlb_mva            0                       # Number of times TLB was flushed by MVA
system.cpu.istage2_mmu.stage2_tlb.flush_tlb_mva_asid            0                       # Number of times TLB was flushed by MVA & ASID
system.cpu.istage2_mmu.stage2_tlb.flush_tlb_asid            0                       # Number of times TLB was flushed by ASID
system.cpu.istage2_mmu.stage2_tlb.flush_entries            0                       # Number of entries that have been flushed from TLB
system.cpu.istage2_mmu.stage2_tlb.align_faults            0                       # Number of TLB faults due to alignment restrictions
system.cpu.istage2_mmu.stage2_tlb.prefetch_faults            0                       # Number of TLB faults due to prefetch
system.cpu.istage2_mmu.stage2_tlb.domain_faults            0                       # Number of TLB faults due to domain restrictions
system.cpu.istage2_mmu.stage2_tlb.perms_faults            0                       # Number of TLB faults due to permissions restrictions
system.cpu.istage2_mmu.stage2_tlb.read_accesses            0                       # DTB read accesses
system.cpu.istage2_mmu.stage2_tlb.write_accesses            0                       # DTB write accesses
system.cpu.istage2_mmu.stage2_tlb.inst_accesses            0                       # ITB inst accesses
system.cpu.istage2_mmu.stage2_tlb.hits              0                       # DTB hits
system.cpu.istage2_mmu.stage2_tlb.misses            0                       # DTB misses
system.cpu.istage2_mmu.stage2_tlb.accesses            0                       # DTB accesses
system.cpu.itb.walker.walks                         0                       # Table walker walks requested
system.cpu.itb.walker.walkRequestOrigin_Requested::Data            0                       # Table walker requests started/completed, data/inst
system.cpu.itb.walker.walkRequestOrigin_Requested::Inst            0                       # Table walker requests started/completed, data/inst
system.cpu.itb.walker.walkRequestOrigin_Requested::total            0                       # Table walker requests started/completed, data/inst
system.cpu.itb.walker.walkRequestOrigin_Completed::Data            0                       # Table walker requests started/completed, data/inst
system.cpu.itb.walker.walkRequestOrigin_Completed::Inst            0                       # Table walker requests started/completed, data/inst
system.cpu.itb.walker.walkRequestOrigin_Completed::total            0                       # Table walker requests started/completed, data/inst
system.cpu.itb.walker.walkRequestOrigin::total            0                       # Table walker requests started/completed, data/inst
system.cpu.itb.inst_hits                            0                       # ITB inst hits
system.cpu.itb.inst_misses                          0                       # ITB inst misses
system.cpu.itb.read_hits                            0                       # DTB read hits
system.cpu.itb.read_misses                          0                       # DTB read misses
system.cpu.itb.write_hits                           0                       # DTB write hits
system.cpu.itb.write_misses                         0                       # DTB write misses
system.cpu.itb.flush_tlb                            0                       # Number of times complete TLB was flushed
system.cpu.itb.flush_tlb_mva                        0                       # Number of times TLB was flushed by MVA
system.cpu.itb.flush_tlb_mva_asid                   0                       # Number of times TLB was flushed by MVA & ASID
system.cpu.itb.flush_tlb_asid                       0                       # Number of times TLB was flushed by ASID
system.cpu.itb.flush_entries                        0                       # Number of entries that have been flushed from TLB
system.cpu.itb.align_faults                         0                       # Number of TLB faults due to alignment restrictions
system.cpu.itb.prefetch_faults                      0                       # Number of TLB faults due to prefetch
system.cpu.itb.domain_faults                        0                       # Number of TLB faults due to domain restrictions
system.cpu.itb.perms_faults                         0                       # Number of TLB faults due to permissions restrictions
system.cpu.itb.read_accesses                        0                       # DTB read accesses
system.cpu.itb.write_accesses                       0                       # DTB write accesses
system.cpu.itb.inst_accesses                        0                       # ITB inst accesses
system.cpu.itb.hits                                 0                       # DTB hits
system.cpu.itb.misses                               0                       # DTB misses
system.cpu.itb.accesses                             0                       # DTB accesses
system.cpu.workload.num_syscalls                   21                       # Number of system calls
system.cpu.numCycles                          8943745                       # number of cpu cycles simulated
system.cpu.numWorkItemsStarted                      0                       # number of work items this cpu started
system.cpu.numWorkItemsCompleted                    0                       # number of work items this cpu completed
system.cpu.fetch.icacheStallCycles            2892750                       # Number of cycles fetch is stalled on an Icache miss
system.cpu.fetch.Insts                        7170865                       # Number of instructions fetch has processed
system.cpu.fetch.Branches                     1291072                       # Number of branches that fetch encountered
system.cpu.fetch.predictedBranches             677728                       # Number of branches that fetch has predicted taken
system.cpu.fetch.Cycles                       1642612                       # Number of cycles fetch has run and was not squashing or blocked
system.cpu.fetch.SquashCycles                  158993                       # Number of cycles fetch has spent squashing
system.cpu.fetch.MiscStallCycles                  117                       # Number of cycles fetch has spent waiting on interrupts, or bad addresses, or out of MSHRs
system.cpu.fetch.PendingTrapStallCycles           149                       # Number of stall cycles due to pending traps
system.cpu.fetch.IcacheWaitRetryStallCycles           55                       # Number of stall cycles due to full MSHR
system.cpu.fetch.CacheLines                   1004436                       # Number of cache lines fetched
system.cpu.fetch.IcacheSquashes                 45439                       # Number of outstanding Icache misses that were squashed
system.cpu.fetch.rateDist::samples            4615179                       # Number of instructions fetched each cycle (Total)
system.cpu.fetch.rateDist::mean              1.799534                       # Number of instructions fetched each cycle (Total)
system.cpu.fetch.rateDist::stdev             2.984146                       # Number of instructions fetched each cycle (Total)
system.cpu.fetch.rateDist::underflows               0      0.00%      0.00% # Number of instructions fetched each cycle (Total)
system.cpu.fetch.rateDist::0                  3036534     65.79%     65.79% # Number of instructions fetched each cycle (Total)
system.cpu.fetch.rateDist::1                   236489      5.12%     70.92% # Number of instructions fetched each cycle (Total)
system.cpu.fetch.rateDist::2                   200720      4.35%     75.27% # Number of instructions fetched each cycle (Total)
system.cpu.fetch.rateDist::3                    99771      2.16%     77.43% # Number of instructions fetched each cycle (Total)
system.cpu.fetch.rateDist::4                   109161      2.37%     79.79% # Number of instructions fetched each cycle (Total)
system.cpu.fetch.rateDist::5                    73229      1.59%     81.38% # Number of instructions fetched each cycle (Total)
system.cpu.fetch.rateDist::6                    85936      1.86%     83.24% # Number of instructions fetched each cycle (Total)
system.cpu.fetch.rateDist::7                   137187      2.97%     86.22% # Number of instructions fetched each cycle (Total)
system.cpu.fetch.rateDist::8                   636152     13.78%    100.00% # Number of instructions fetched each cycle (Total)
system.cpu.fetch.rateDist::overflows                0      0.00%    100.00% # Number of instructions fetched each cycle (Total)
system.cpu.fetch.rateDist::min_value                0                       # Number of instructions fetched each cycle (Total)
system.cpu.fetch.rateDist::max_value                8                       # Number of instructions fetched each cycle (Total)
system.cpu.fetch.rateDist::total              4615179                       # Number of instructions fetched each cycle (Total)
system.cpu.fetch.branchRate                  0.144355                       # Number of branch fetches per cycle
system.cpu.fetch.rate                        0.801774                       # Number of inst fetches per cycle
system.cpu.decode.IdleCycles                  2554488                       # Number of cycles decode is idle
system.cpu.decode.BlockedCycles                562163                       # Number of cycles decode is blocked
system.cpu.decode.RunCycles                   1330769                       # Number of cycles decode is running
system.cpu.decode.UnblockCycles                 90471                       # Number of cycles decode is unblocking
system.cpu.decode.SquashCycles                  77288                       # Number of cycles decode is squashing
system.cpu.decode.BranchResolved               212988                       # Number of times decode resolved a branch
system.cpu.decode.BranchMispred                  2256                       # Number of times decode detected a branch misprediction
system.cpu.decode.DecodedInsts                7934969                       # Number of instructions handled by decode
system.cpu.decode.SquashedInsts                  4489                       # Number of squashed instructions handled by decode
system.cpu.rename.SquashCycles                  77288                       # Number of cycles rename is squashing
system.cpu.rename.IdleCycles                  2603840                       # Number of cycles rename is idle
system.cpu.rename.BlockCycles                  242936                       # Number of cycles rename is blocking
system.cpu.rename.serializeStallCycles         199245                       # count of cycles rename stalled for serializing inst
system.cpu.rename.RunCycles                   1370443                       # Number of cycles rename is running
system.cpu.rename.UnblockCycles                121427                       # Number of cycles rename is unblocking
system.cpu.rename.RenamedInsts                7762054                       # Number of instructions processed by rename
system.cpu.rename.ROBFullEvents                     3                       # Number of times rename has blocked due to ROB full
system.cpu.rename.IQFullEvents                  84210                       # Number of times rename has blocked due to IQ full
system.cpu.rename.LQFullEvents                    124                       # Number of times rename has blocked due to LQ full
system.cpu.rename.SQFullEvents                  14882                       # Number of times rename has blocked due to SQ full
system.cpu.rename.RenamedOperands            11112116                       # Number of destination operands rename has renamed
system.cpu.rename.RenameLookups              36195216                       # Number of register rename lookups that rename has made
system.cpu.rename.int_rename_lookups         10545408                       # Number of integer rename lookups
system.cpu.rename.fp_rename_lookups               262                       # Number of floating rename lookups
system.cpu.rename.CommittedMaps               7421138                       # Number of HB maps that are committed
system.cpu.rename.UndoneMaps                  3690978                       # Number of HB maps that are undone due to squashing
system.cpu.rename.serializingInsts              16897                       # count of serializing insts renamed
system.cpu.rename.tempSerializingInsts           6422                       # count of temporary serializing insts renamed
system.cpu.rename.skidInsts                    248328                       # count of insts added to the skid buffer
system.cpu.memDep0.insertedLoads               564246                       # Number of loads inserted to the mem dependence unit.
system.cpu.memDep0.insertedStores              494630                       # Number of stores inserted to the mem dependence unit.
system.cpu.memDep0.conflictingLoads             24695                       # Number of conflicting loads.
system.cpu.memDep0.conflictingStores           134951                       # Number of conflicting stores.
system.cpu.iq.iqInstsAdded                    7385274                       # Number of instructions added to the IQ (excludes non-spec)
system.cpu.iq.iqNonSpecInstsAdded                6460                       # Number of non-speculative instructions added to the IQ
system.cpu.iq.iqInstsIssued                   6142709                       # Number of instructions issued
system.cpu.iq.iqSquashedInstsIssued              3857                       # Number of squashed instructions issued
system.cpu.iq.iqSquashedInstsExamined         2099442                       # Number of squashed instructions iterated over during squash; mainly for profiling
system.cpu.iq.iqSquashedOperandsExamined      6374021                       # Number of squashed operands that are examined and possibly removed from graph
system.cpu.iq.iqSquashedNonSpecRemoved             12                       # Number of squashed non-spec instructions that were removed
system.cpu.iq.issued_per_cycle::samples       4615179                       # Number of insts issued each cycle
system.cpu.iq.issued_per_cycle::mean         1.330980                       # Number of insts issued each cycle
system.cpu.iq.issued_per_cycle::stdev        1.799961                       # Number of insts issued each cycle
system.cpu.iq.issued_per_cycle::underflows            0      0.00%      0.00% # Number of insts issued each cycle
system.cpu.iq.issued_per_cycle::0             2284373     49.50%     49.50% # Number of insts issued each cycle
system.cpu.iq.issued_per_cycle::1              802439     17.39%     66.88% # Number of insts issued each cycle
system.cpu.iq.issued_per_cycle::2              569782     12.35%     79.23% # Number of insts issued each cycle
system.cpu.iq.issued_per_cycle::3              296340      6.42%     85.65% # Number of insts issued each cycle
system.cpu.iq.issued_per_cycle::4              288459      6.25%     91.90% # Number of insts issued each cycle
system.cpu.iq.issued_per_cycle::5              176924      3.83%     95.73% # Number of insts issued each cycle
system.cpu.iq.issued_per_cycle::6              133553      2.89%     98.63% # Number of insts issued each cycle
system.cpu.iq.issued_per_cycle::7               34560      0.75%     99.38% # Number of insts issued each cycle
system.cpu.iq.issued_per_cycle::8               28749      0.62%    100.00% # Number of insts issued each cycle
system.cpu.iq.issued_per_cycle::overflows            0      0.00%    100.00% # Number of insts issued each cycle
system.cpu.iq.issued_per_cycle::min_value            0                       # Number of insts issued each cycle
system.cpu.iq.issued_per_cycle::max_value            8                       # Number of insts issued each cycle
system.cpu.iq.issued_per_cycle::total         4615179                       # Number of insts issued each cycle
system.cpu.iq.fu_full::No_OpClass                   0      0.00%      0.00% # attempts to use FU when none available
system.cpu.iq.fu_full::IntAlu                   61590     77.56%     77.56% # attempts to use FU when none available
system.cpu.iq.fu_full::IntMult                      0      0.00%     77.56% # attempts to use FU when none available
system.cpu.iq.fu_full::IntDiv                       0      0.00%     77.56% # attempts to use FU when none available
system.cpu.iq.fu_full::FloatAdd                     0      0.00%     77.56% # attempts to use FU when none available
system.cpu.iq.fu_full::FloatCmp                     0      0.00%     77.56% # attempts to use FU when none available
system.cpu.iq.fu_full::FloatCvt                     0      0.00%     77.56% # attempts to use FU when none available
system.cpu.iq.fu_full::FloatMult                    0      0.00%     77.56% # attempts to use FU when none available
system.cpu.iq.fu_full::FloatDiv                     0      0.00%     77.56% # attempts to use FU when none available
system.cpu.iq.fu_full::FloatSqrt                    0      0.00%     77.56% # attempts to use FU when none available
system.cpu.iq.fu_full::SimdAdd                      0      0.00%     77.56% # attempts to use FU when none available
system.cpu.iq.fu_full::SimdAddAcc                   0      0.00%     77.56% # attempts to use FU when none available
system.cpu.iq.fu_full::SimdAlu                      0      0.00%     77.56% # attempts to use FU when none available
system.cpu.iq.fu_full::SimdCmp                      0      0.00%     77.56% # attempts to use FU when none available
system.cpu.iq.fu_full::SimdCvt                      0      0.00%     77.56% # attempts to use FU when none available
system.cpu.iq.fu_full::SimdMisc                     0      0.00%     77.56% # attempts to use FU when none available
system.cpu.iq.fu_full::SimdMult                     0      0.00%     77.56% # attempts to use FU when none available
system.cpu.iq.fu_full::SimdMultAcc                  0      0.00%     77.56% # attempts to use FU when none available
system.cpu.iq.fu_full::SimdShift                    0      0.00%     77.56% # attempts to use FU when none available
system.cpu.iq.fu_full::SimdShiftAcc                 0      0.00%     77.56% # attempts to use FU when none available
system.cpu.iq.fu_full::SimdSqrt                     0      0.00%     77.56% # attempts to use FU when none available
system.cpu.iq.fu_full::SimdFloatAdd                 0      0.00%     77.56% # attempts to use FU when none available
system.cpu.iq.fu_full::SimdFloatAlu                 0      0.00%     77.56% # attempts to use FU when none available
system.cpu.iq.fu_full::SimdFloatCmp                 0      0.00%     77.56% # attempts to use FU when none available
system.cpu.iq.fu_full::SimdFloatCvt                 0      0.00%     77.56% # attempts to use FU when none available
system.cpu.iq.fu_full::SimdFloatDiv                 0      0.00%     77.56% # attempts to use FU when none available
system.cpu.iq.fu_full::SimdFloatMisc                0      0.00%     77.56% # attempts to use FU when none available
system.cpu.iq.fu_full::SimdFloatMult                0      0.00%     77.56% # attempts to use FU when none available
system.cpu.iq.fu_full::SimdFloatMultAcc             0      0.00%     77.56% # attempts to use FU when none available
system.cpu.iq.fu_full::SimdFloatSqrt                0      0.00%     77.56% # attempts to use FU when none available
system.cpu.iq.fu_full::MemRead                   5965      7.51%     85.08% # attempts to use FU when none available
system.cpu.iq.fu_full::MemWrite                 11850     14.92%    100.00% # attempts to use FU when none available
system.cpu.iq.fu_full::IprAccess                    0      0.00%    100.00% # attempts to use FU when none available
system.cpu.iq.fu_full::InstPrefetch                 0      0.00%    100.00% # attempts to use FU when none available
system.cpu.iq.FU_type_0::No_OpClass                 0      0.00%      0.00% # Type of FU issued
system.cpu.iq.FU_type_0::IntAlu               5054273     82.28%     82.28% # Type of FU issued
system.cpu.iq.FU_type_0::IntMult               111280      1.81%     84.09% # Type of FU issued
system.cpu.iq.FU_type_0::IntDiv                     0      0.00%     84.09% # Type of FU issued
system.cpu.iq.FU_type_0::FloatAdd                   0      0.00%     84.09% # Type of FU issued
system.cpu.iq.FU_type_0::FloatCmp                   0      0.00%     84.09% # Type of FU issued
system.cpu.iq.FU_type_0::FloatCvt                   0      0.00%     84.09% # Type of FU issued
system.cpu.iq.FU_type_0::FloatMult                  0      0.00%     84.09% # Type of FU issued
system.cpu.iq.FU_type_0::FloatDiv                   0      0.00%     84.09% # Type of FU issued
system.cpu.iq.FU_type_0::FloatSqrt                  0      0.00%     84.09% # Type of FU issued
system.cpu.iq.FU_type_0::SimdAdd                    0      0.00%     84.09% # Type of FU issued
system.cpu.iq.FU_type_0::SimdAddAcc                 0      0.00%     84.09% # Type of FU issued
system.cpu.iq.FU_type_0::SimdAlu                    0      0.00%     84.09% # Type of FU issued
system.cpu.iq.FU_type_0::SimdCmp                    0      0.00%     84.09% # Type of FU issued
system.cpu.iq.FU_type_0::SimdCvt                    0      0.00%     84.09% # Type of FU issued
system.cpu.iq.FU_type_0::SimdMisc                   0      0.00%     84.09% # Type of FU issued
system.cpu.iq.FU_type_0::SimdMult                   0      0.00%     84.09% # Type of FU issued
system.cpu.iq.FU_type_0::SimdMultAcc                0      0.00%     84.09% # Type of FU issued
system.cpu.iq.FU_type_0::SimdShift                  0      0.00%     84.09% # Type of FU issued
system.cpu.iq.FU_type_0::SimdShiftAcc               0      0.00%     84.09% # Type of FU issued
system.cpu.iq.FU_type_0::SimdSqrt                   0      0.00%     84.09% # Type of FU issued
system.cpu.iq.FU_type_0::SimdFloatAdd              55      0.00%     84.09% # Type of FU issued
system.cpu.iq.FU_type_0::SimdFloatAlu               0      0.00%     84.09% # Type of FU issued
system.cpu.iq.FU_type_0::SimdFloatCmp               0      0.00%     84.09% # Type of FU issued
system.cpu.iq.FU_type_0::SimdFloatCvt               0      0.00%     84.09% # Type of FU issued
system.cpu.iq.FU_type_0::SimdFloatDiv               3      0.00%     84.09% # Type of FU issued
system.cpu.iq.FU_type_0::SimdFloatMisc          14784      0.24%     84.33% # Type of FU issued
system.cpu.iq.FU_type_0::SimdFloatMult              0      0.00%     84.33% # Type of FU issued
system.cpu.iq.FU_type_0::SimdFloatMultAcc            0      0.00%     84.33% # Type of FU issued
system.cpu.iq.FU_type_0::SimdFloatSqrt              0      0.00%     84.33% # Type of FU issued
system.cpu.iq.FU_type_0::MemRead               525597      8.56%     92.89% # Type of FU issued
system.cpu.iq.FU_type_0::MemWrite              436717      7.11%    100.00% # Type of FU issued
system.cpu.iq.FU_type_0::IprAccess                  0      0.00%    100.00% # Type of FU issued
system.cpu.iq.FU_type_0::InstPrefetch               0      0.00%    100.00% # Type of FU issued
system.cpu.iq.FU_type_0::total                6142709                       # Type of FU issued
system.cpu.iq.rate                           0.686816                       # Inst issue rate
system.cpu.iq.fu_busy_cnt                       79405                       # FU busy when requested
system.cpu.iq.fu_busy_rate                   0.012927                       # FU busy rate (busy events/executed inst)
system.cpu.iq.int_inst_queue_reads           16983218                       # Number of integer instruction queue reads
system.cpu.iq.int_inst_queue_writes           9490508                       # Number of integer instruction queue writes
system.cpu.iq.int_inst_queue_wakeup_accesses      6010510                       # Number of integer instruction queue wakeup accesses
system.cpu.iq.fp_inst_queue_reads                 641                       # Number of floating instruction queue reads
system.cpu.iq.fp_inst_queue_writes                752                       # Number of floating instruction queue writes
system.cpu.iq.fp_inst_queue_wakeup_accesses          252                       # Number of floating instruction queue wakeup accesses
system.cpu.iq.int_alu_accesses                6221792                       # Number of integer alu accesses
system.cpu.iq.fp_alu_accesses                     322                       # Number of floating point alu accesses
system.cpu.iew.lsq.thread0.forwLoads            10335                       # Number of loads that had data forwarded from stores
system.cpu.iew.lsq.thread0.invAddrLoads             0                       # Number of loads ignored due to an invalid address
system.cpu.iew.lsq.thread0.squashedLoads       163946                       # Number of loads squashed
system.cpu.iew.lsq.thread0.ignoredResponses            5                       # Number of memory responses ignored because the instruction is squashed
system.cpu.iew.lsq.thread0.memOrderViolation           88                       # Number of memory ordering violations
system.cpu.iew.lsq.thread0.squashedStores        98672                       # Number of stores squashed
system.cpu.iew.lsq.thread0.invAddrSwpfs             0                       # Number of software prefetches ignored due to an invalid address
system.cpu.iew.lsq.thread0.blockedLoads             0                       # Number of blocked loads due to partial load-store forwarding
system.cpu.iew.lsq.thread0.rescheduledLoads        24347                       # Number of loads that were rescheduled
system.cpu.iew.lsq.thread0.cacheBlocked            20                       # Number of times an access to memory failed due to the cache being blocked
system.cpu.iew.iewIdleCycles                        0                       # Number of cycles IEW is idle
system.cpu.iew.iewSquashCycles                  77288                       # Number of cycles IEW is squashing
system.cpu.iew.iewBlockCycles                  232935                       # Number of cycles IEW is blocking
system.cpu.iew.iewUnblockCycles                   793                       # Number of cycles IEW is unblocking
system.cpu.iew.iewDispatchedInsts             7391746                       # Number of instructions dispatched to IQ
system.cpu.iew.iewDispSquashedInsts             23787                       # Number of squashed instructions skipped by dispatch
system.cpu.iew.iewDispLoadInsts                564246                       # Number of dispatched load instructions
system.cpu.iew.iewDispStoreInsts               494630                       # Number of dispatched store instructions
system.cpu.iew.iewDispNonSpecInsts               6414                       # Number of dispatched non-speculative instructions
system.cpu.iew.iewIQFullEvents                    451                       # Number of times the IQ has become full, causing a stall
system.cpu.iew.iewLSQFullEvents                   257                       # Number of times the LSQ has become full, causing a stall
system.cpu.iew.memOrderViolationEvents             88                       # Number of memory order violations
system.cpu.iew.predictedTakenIncorrect          48049                       # Number of branches that were predicted taken incorrectly
system.cpu.iew.predictedNotTakenIncorrect        38297                       # Number of branches that were predicted not taken incorrectly
system.cpu.iew.branchMispredicts                86346                       # Number of branch mispredicts detected at execute
system.cpu.iew.iewExecutedInsts               6069566                       # Number of executed instructions
system.cpu.iew.iewExecLoadInsts                498873                       # Number of load instructions executed
system.cpu.iew.iewExecSquashedInsts             73143                       # Number of squashed instructions skipped in execute
system.cpu.iew.exec_swp                             0                       # number of swp insts executed
system.cpu.iew.exec_nop                            12                       # number of nop insts executed
system.cpu.iew.exec_refs                       928096                       # number of memory reference insts executed
system.cpu.iew.exec_branches                   926072                       # Number of branches executed
system.cpu.iew.exec_stores                     429223                       # Number of stores executed
system.cpu.iew.exec_rate                     0.678638                       # Inst execution rate
system.cpu.iew.wb_sent                        6019947                       # cumulative count of insts sent to commit
system.cpu.iew.wb_count                       6010762                       # cumulative count of insts written-back
system.cpu.iew.wb_producers                   3915513                       # num instructions producing a value
system.cpu.iew.wb_consumers                  10371099                       # num instructions consuming a value
system.cpu.iew.wb_penalized                         0                       # number of instrctions required to write to 'other' IQ
system.cpu.iew.wb_rate                       0.672063                       # insts written-back per cycle
system.cpu.iew.wb_fanout                     0.377541                       # average fanout of values written-back
system.cpu.iew.wb_penalized_rate                    0                       # fraction of instructions written-back that wrote to 'other' IQ
system.cpu.commit.commitSquashedInsts         2099467                       # The number of squashed insts skipped by commit
system.cpu.commit.commitNonSpecStalls            6448                       # The number of times commit has been forced to stall to communicate backwards
system.cpu.commit.branchMispredicts             70870                       # The number of times a branch was mispredicted
system.cpu.commit.committed_per_cycle::samples      4310194                       # Number of insts commited each cycle
system.cpu.commit.committed_per_cycle::mean     1.227855                       # Number of insts commited each cycle
system.cpu.commit.committed_per_cycle::stdev     1.900269                       # Number of insts commited each cycle
system.cpu.commit.committed_per_cycle::underflows            0      0.00%      0.00% # Number of insts commited each cycle
system.cpu.commit.committed_per_cycle::0      2238486     51.93%     51.93% # Number of insts commited each cycle
system.cpu.commit.committed_per_cycle::1       946795     21.97%     73.90% # Number of insts commited each cycle
system.cpu.commit.committed_per_cycle::2       374344      8.69%     82.59% # Number of insts commited each cycle
system.cpu.commit.committed_per_cycle::3       252316      5.85%     88.44% # Number of insts commited each cycle
system.cpu.commit.committed_per_cycle::4       155977      3.62%     92.06% # Number of insts commited each cycle
system.cpu.commit.committed_per_cycle::5        96403      2.24%     94.30% # Number of insts commited each cycle
system.cpu.commit.committed_per_cycle::6       100729      2.34%     96.63% # Number of insts commited each cycle
system.cpu.commit.committed_per_cycle::7        31588      0.73%     97.37% # Number of insts commited each cycle
system.cpu.commit.committed_per_cycle::8       113556      2.63%    100.00% # Number of insts commited each cycle
system.cpu.commit.committed_per_cycle::overflows            0      0.00%    100.00% # Number of insts commited each cycle
system.cpu.commit.committed_per_cycle::min_value            0                       # Number of insts commited each cycle
system.cpu.commit.committed_per_cycle::max_value            8                       # Number of insts commited each cycle
system.cpu.commit.committed_per_cycle::total      4310194                       # Number of insts commited each cycle
system.cpu.commit.committedInsts              4538148                       # Number of instructions committed
system.cpu.commit.committedOps                5292292                       # Number of ops (including micro ops) committed
system.cpu.commit.swp_count                         0                       # Number of s/w prefetches committed
system.cpu.commit.refs                         796258                       # Number of memory references committed
system.cpu.commit.loads                        400300                       # Number of loads committed
system.cpu.commit.membars                          46                       # Number of memory barriers committed
system.cpu.commit.branches                     809992                       # Number of branches committed
system.cpu.commit.fp_insts                         16                       # Number of committed floating point instructions.
system.cpu.commit.int_insts                   4765687                       # Number of committed integer instructions.
system.cpu.commit.function_calls               135110                       # Number of function calls committed.
system.cpu.commit.op_class_0::No_OpClass            0      0.00%      0.00% # Class of committed instruction
system.cpu.commit.op_class_0::IntAlu          4371990     82.61%     82.61% # Class of committed instruction
system.cpu.commit.op_class_0::IntMult          109260      2.06%     84.68% # Class of committed instruction
system.cpu.commit.op_class_0::IntDiv                0      0.00%     84.68% # Class of committed instruction
system.cpu.commit.op_class_0::FloatAdd              0      0.00%     84.68% # Class of committed instruction
system.cpu.commit.op_class_0::FloatCmp              0      0.00%     84.68% # Class of committed instruction
system.cpu.commit.op_class_0::FloatCvt              0      0.00%     84.68% # Class of committed instruction
system.cpu.commit.op_class_0::FloatMult             0      0.00%     84.68% # Class of committed instruction
system.cpu.commit.op_class_0::FloatDiv              0      0.00%     84.68% # Class of committed instruction
system.cpu.commit.op_class_0::FloatSqrt             0      0.00%     84.68% # Class of committed instruction
system.cpu.commit.op_class_0::SimdAdd               0      0.00%     84.68% # Class of committed instruction
system.cpu.commit.op_class_0::SimdAddAcc            0      0.00%     84.68% # Class of committed instruction
system.cpu.commit.op_class_0::SimdAlu               0      0.00%     84.68% # Class of committed instruction
system.cpu.commit.op_class_0::SimdCmp               0      0.00%     84.68% # Class of committed instruction
system.cpu.commit.op_class_0::SimdCvt               0      0.00%     84.68% # Class of committed instruction
system.cpu.commit.op_class_0::SimdMisc              0      0.00%     84.68% # Class of committed instruction
system.cpu.commit.op_class_0::SimdMult              0      0.00%     84.68% # Class of committed instruction
system.cpu.commit.op_class_0::SimdMultAcc            0      0.00%     84.68% # Class of committed instruction
system.cpu.commit.op_class_0::SimdShift             0      0.00%     84.68% # Class of committed instruction
system.cpu.commit.op_class_0::SimdShiftAcc            0      0.00%     84.68% # Class of committed instruction
system.cpu.commit.op_class_0::SimdSqrt              0      0.00%     84.68% # Class of committed instruction
system.cpu.commit.op_class_0::SimdFloatAdd            0      0.00%     84.68% # Class of committed instruction
system.cpu.commit.op_class_0::SimdFloatAlu            0      0.00%     84.68% # Class of committed instruction
system.cpu.commit.op_class_0::SimdFloatCmp            0      0.00%     84.68% # Class of committed instruction
system.cpu.commit.op_class_0::SimdFloatCvt            0      0.00%     84.68% # Class of committed instruction
[...]
system.cpu.dcache.blocked::no_targets               0                       # number of cycles access was blocked
system.cpu.dcache.avg_blocked_cycles::no_mshrs    60.714286                       # average number of cycles each access was blocked
system.cpu.dcache.avg_blocked_cycles::no_targets          nan                       # average number of cycles each access was blocked
system.cpu.dcache.fast_writes                       0                       # number of fast writes performed
system.cpu.dcache.cache_copies                      0                       # number of cache copies performed
system.cpu.dcache.writebacks::writebacks          588                       # number of writebacks
system.cpu.dcache.writebacks::total               588                       # number of writebacks
system.cpu.dcache.ReadReq_mshr_hits::cpu.data          706                       # number of ReadReq MSHR hits
system.cpu.dcache.ReadReq_mshr_hits::total          706                       # number of ReadReq MSHR hits
system.cpu.dcache.WriteReq_mshr_hits::cpu.data         1818                       # number of WriteReq MSHR hits
system.cpu.dcache.WriteReq_mshr_hits::total         1818                       # number of WriteReq MSHR hits
system.cpu.dcache.LoadLockedReq_mshr_hits::cpu.data            3                       # number of LoadLockedReq MSHR hits
system.cpu.dcache.LoadLockedReq_mshr_hits::total            3                       # number of LoadLockedReq MSHR hits
system.cpu.dcache.demand_mshr_hits::cpu.data         2524                       # number of demand (read+write) MSHR hits
system.cpu.dcache.demand_mshr_hits::total         2524                       # number of demand (read+write) MSHR hits
system.cpu.dcache.overall_mshr_hits::cpu.data         2524                       # number of overall MSHR hits
system.cpu.dcache.overall_mshr_hits::total         2524                       # number of overall MSHR hits
system.cpu.dcache.ReadReq_mshr_misses::cpu.data          412                       # number of ReadReq MSHR misses
system.cpu.dcache.ReadReq_mshr_misses::total          412                       # number of ReadReq MSHR misses
system.cpu.dcache.WriteReq_mshr_misses::cpu.data          592                       # number of WriteReq MSHR misses
system.cpu.dcache.WriteReq_mshr_misses::total          592                       # number of WriteReq MSHR misses
system.cpu.dcache.demand_mshr_misses::cpu.data         1004                       # number of demand (read+write) MSHR misses
system.cpu.dcache.demand_mshr_misses::total         1004                       # number of demand (read+write) MSHR misses
system.cpu.dcache.overall_mshr_misses::cpu.data         1004                       # number of overall MSHR misses
system.cpu.dcache.overall_mshr_misses::total         1004                       # number of overall MSHR misses
system.cpu.dcache.ReadReq_mshr_miss_latency::cpu.data     22554000                       # number of ReadReq MSHR miss cycles
system.cpu.dcache.ReadReq_mshr_miss_latency::total     22554000                       # number of ReadReq MSHR miss cycles
system.cpu.dcache.WriteReq_mshr_miss_latency::cpu.data     34793750                       # number of WriteReq MSHR miss cycles
system.cpu.dcache.WriteReq_mshr_miss_latency::total     34793750                       # number of WriteReq MSHR miss cycles
system.cpu.dcache.demand_mshr_miss_latency::cpu.data     57347750                       # number of demand (read+write) MSHR miss cycles
system.cpu.dcache.demand_mshr_miss_latency::total     57347750                       # number of demand (read+write) MSHR miss cycles
system.cpu.dcache.overall_mshr_miss_latency::cpu.data     57347750                       # number of overall MSHR miss cycles
system.cpu.dcache.overall_mshr_miss_latency::total     57347750                       # number of overall MSHR miss cycles
system.cpu.dcache.ReadReq_mshr_miss_rate::cpu.data     0.001053                       # mshr miss rate for ReadReq accesses
system.cpu.dcache.ReadReq_mshr_miss_rate::total     0.001053                       # mshr miss rate for ReadReq accesses
system.cpu.dcache.WriteReq_mshr_miss_rate::cpu.data     0.001499                       # mshr miss rate for WriteReq accesses
system.cpu.dcache.WriteReq_mshr_miss_rate::total     0.001499                       # mshr miss rate for WriteReq accesses
system.cpu.dcache.demand_mshr_miss_rate::cpu.data     0.001277                       # mshr miss rate for demand accesses
system.cpu.dcache.demand_mshr_miss_rate::total     0.001277                       # mshr miss rate for demand accesses
system.cpu.dcache.overall_mshr_miss_rate::cpu.data     0.001277                       # mshr miss rate for overall accesses
system.cpu.dcache.overall_mshr_miss_rate::total     0.001277                       # mshr miss rate for overall accesses
system.cpu.dcache.ReadReq_avg_mshr_miss_latency::cpu.data 54742.718447                       # average ReadReq mshr miss latency
system.cpu.dcache.ReadReq_avg_mshr_miss_latency::total 54742.718447                       # average ReadReq mshr miss latency
system.cpu.dcache.WriteReq_avg_mshr_miss_latency::cpu.data 58773.226351                       # average WriteReq mshr miss latency
system.cpu.dcache.WriteReq_avg_mshr_miss_latency::total 58773.226351                       # average WriteReq mshr miss latency
system.cpu.dcache.demand_avg_mshr_miss_latency::cpu.data 57119.272908                       # average overall mshr miss latency
system.cpu.dcache.demand_avg_mshr_miss_latency::total 57119.272908                       # average overall mshr miss latency
system.cpu.dcache.overall_avg_mshr_miss_latency::cpu.data 57119.272908                       # average overall mshr miss latency
system.cpu.dcache.overall_avg_mshr_miss_latency::total 57119.272908                       # average overall mshr miss latency
system.cpu.dcache.no_allocate_misses                0                       # Number of misses that were no-allocate
system.cpu.icache.tags.replacements             72502                       # number of replacements
system.cpu.icache.tags.tagsinuse            63.971206                       # Cycle average of tags in use
system.cpu.icache.tags.total_refs              908759                       # Total number of references to valid blocks.
system.cpu.icache.tags.sampled_refs             72566                       # Sample count of references to valid blocks.
system.cpu.icache.tags.avg_refs             12.523206                       # Average number of references to valid blocks.
system.cpu.icache.tags.warmup_cycle           5488750                       # Cycle when the warmup percentage was hit.
system.cpu.icache.tags.occ_blocks::cpu.inst    63.971206                       # Average occupied blocks per requestor
system.cpu.icache.tags.occ_percent::cpu.inst     0.999550                       # Average percentage of cache occupancy
system.cpu.icache.tags.occ_percent::total     0.999550                       # Average percentage of cache occupancy
system.cpu.icache.tags.occ_task_id_blocks::1024           64                       # Occupied blocks per task id
system.cpu.icache.tags.age_task_id_blocks_1024::0           62                       # Occupied blocks per task id
system.cpu.icache.tags.age_task_id_blocks_1024::1            1                       # Occupied blocks per task id
system.cpu.icache.tags.age_task_id_blocks_1024::2            1                       # Occupied blocks per task id
system.cpu.icache.tags.occ_task_id_percent::1024            1                       # Percentage of cache occupancy per task id
system.cpu.icache.tags.tag_accesses           2081432                       # Number of tag accesses
system.cpu.icache.tags.data_accesses          2081432                       # Number of data accesses
system.cpu.icache.ReadReq_hits::cpu.inst       908759                       # number of ReadReq hits
system.cpu.icache.ReadReq_hits::total          908759                       # number of ReadReq hits
system.cpu.icache.demand_hits::cpu.inst        908759                       # number of demand (read+write) hits
system.cpu.icache.demand_hits::total           908759                       # number of demand (read+write) hits
system.cpu.icache.overall_hits::cpu.inst       908759                       # number of overall hits
system.cpu.icache.overall_hits::total          908759                       # number of overall hits
system.cpu.icache.ReadReq_misses::cpu.inst        95674                       # number of ReadReq misses
system.cpu.icache.ReadReq_misses::total         95674                       # number of ReadReq misses
system.cpu.icache.demand_misses::cpu.inst        95674                       # number of demand (read+write) misses
system.cpu.icache.demand_misses::total          95674                       # number of demand (read+write) misses
system.cpu.icache.overall_misses::cpu.inst        95674                       # number of overall misses
system.cpu.icache.overall_misses::total         95674                       # number of overall misses
system.cpu.icache.ReadReq_miss_latency::cpu.inst   4366626248                       # number of ReadReq miss cycles
system.cpu.icache.ReadReq_miss_latency::total   4366626248                       # number of ReadReq miss cycles
system.cpu.icache.demand_miss_latency::cpu.inst   4366626248                       # number of demand (read+write) miss cycles
system.cpu.icache.demand_miss_latency::total   4366626248                       # number of demand (read+write) miss cycles
system.cpu.icache.overall_miss_latency::cpu.inst   4366626248                       # number of overall miss cycles
system.cpu.icache.overall_miss_latency::total   4366626248                       # number of overall miss cycles
system.cpu.icache.ReadReq_accesses::cpu.inst      1004433                       # number of ReadReq accesses(hits+misses)
system.cpu.icache.ReadReq_accesses::total      1004433                       # number of ReadReq accesses(hits+misses)
system.cpu.icache.demand_accesses::cpu.inst      1004433                       # number of demand (read+write) accesses
system.cpu.icache.demand_accesses::total      1004433                       # number of demand (read+write) accesses
system.cpu.icache.overall_accesses::cpu.inst      1004433                       # number of overall (read+write) accesses
system.cpu.icache.overall_accesses::total      1004433                       # number of overall (read+write) accesses
system.cpu.icache.ReadReq_miss_rate::cpu.inst     0.095252                       # miss rate for ReadReq accesses
system.cpu.icache.ReadReq_miss_rate::total     0.095252                       # miss rate for ReadReq accesses
system.cpu.icache.demand_miss_rate::cpu.inst     0.095252                       # miss rate for demand accesses
system.cpu.icache.demand_miss_rate::total     0.095252                       # miss rate for demand accesses
system.cpu.icache.overall_miss_rate::cpu.inst     0.095252                       # miss rate for overall accesses
system.cpu.icache.overall_miss_rate::total     0.095252                       # miss rate for overall accesses
system.cpu.icache.ReadReq_avg_miss_latency::cpu.inst 45640.678220                       # average ReadReq miss latency
system.cpu.icache.ReadReq_avg_miss_latency::total 45640.678220                       # average ReadReq miss latency
system.cpu.icache.demand_avg_miss_latency::cpu.inst 45640.678220                       # average overall miss latency
system.cpu.icache.demand_avg_miss_latency::total 45640.678220                       # average overall miss latency
system.cpu.icache.overall_avg_miss_latency::cpu.inst 45640.678220                       # average overall miss latency
system.cpu.icache.overall_avg_miss_latency::total 45640.678220                       # average overall miss latency
system.cpu.icache.blocked_cycles::no_mshrs          939                       # number of cycles access was blocked
system.cpu.icache.blocked_cycles::no_targets            0                       # number of cycles access was blocked
system.cpu.icache.blocked::no_mshrs                22                       # number of cycles access was blocked
system.cpu.icache.blocked::no_targets               0                       # number of cycles access was blocked
system.cpu.icache.avg_blocked_cycles::no_mshrs    42.681818                       # average number of cycles each access was blocked
system.cpu.icache.avg_blocked_cycles::no_targets          nan                       # average number of cycles each access was blocked
system.cpu.icache.fast_writes                       0                       # number of fast writes performed
system.cpu.icache.cache_copies                      0                       # number of cache copies performed
system.cpu.icache.ReadReq_mshr_hits::cpu.inst        23107                       # number of ReadReq MSHR hits
system.cpu.icache.ReadReq_mshr_hits::total        23107                       # number of ReadReq MSHR hits
system.cpu.icache.demand_mshr_hits::cpu.inst        23107                       # number of demand (read+write) MSHR hits
system.cpu.icache.demand_mshr_hits::total        23107                       # number of demand (read+write) MSHR hits
system.cpu.icache.overall_mshr_hits::cpu.inst        23107                       # number of overall MSHR hits
system.cpu.icache.overall_mshr_hits::total        23107                       # number of overall MSHR hits
system.cpu.icache.ReadReq_mshr_misses::cpu.inst        72567                       # number of ReadReq MSHR misses
system.cpu.icache.ReadReq_mshr_misses::total        72567                       # number of ReadReq MSHR misses
system.cpu.icache.demand_mshr_misses::cpu.inst        72567                       # number of demand (read+write) MSHR misses
system.cpu.icache.demand_mshr_misses::total        72567                       # number of demand (read+write) MSHR misses
system.cpu.icache.overall_mshr_misses::cpu.inst        72567                       # number of overall MSHR misses
system.cpu.icache.overall_mshr_misses::total        72567                       # number of overall MSHR misses
system.cpu.icache.ReadReq_mshr_miss_latency::cpu.inst   3399096999                       # number of ReadReq MSHR miss cycles
system.cpu.icache.ReadReq_mshr_miss_latency::total   3399096999                       # number of ReadReq MSHR miss cycles
system.cpu.icache.demand_mshr_miss_latency::cpu.inst   3399096999                       # number of demand (read+write) MSHR miss cycles
system.cpu.icache.demand_mshr_miss_latency::total   3399096999                       # number of demand (read+write) MSHR miss cycles
system.cpu.icache.overall_mshr_miss_latency::cpu.inst   3399096999                       # number of overall MSHR miss cycles
system.cpu.icache.overall_mshr_miss_latency::total   3399096999                       # number of overall MSHR miss cycles
system.cpu.icache.ReadReq_mshr_miss_rate::cpu.inst     0.072247                       # mshr miss rate for ReadReq accesses
system.cpu.icache.ReadReq_mshr_miss_rate::total     0.072247                       # mshr miss rate for ReadReq accesses
system.cpu.icache.demand_mshr_miss_rate::cpu.inst     0.072247                       # mshr miss rate for demand accesses
system.cpu.icache.demand_mshr_miss_rate::total     0.072247                       # mshr miss rate for demand accesses
system.cpu.icache.overall_mshr_miss_rate::cpu.inst     0.072247                       # mshr miss rate for overall accesses
system.cpu.icache.overall_mshr_miss_rate::total     0.072247                       # mshr miss rate for overall accesses
system.cpu.icache.ReadReq_avg_mshr_miss_latency::cpu.inst 46840.809169                       # average ReadReq mshr miss latency
system.cpu.icache.ReadReq_avg_mshr_miss_latency::total 46840.809169                       # average ReadReq mshr miss latency
system.cpu.icache.demand_avg_mshr_miss_latency::cpu.inst 46840.809169                       # average overall mshr miss latency
system.cpu.icache.demand_avg_mshr_miss_latency::total 46840.809169                       # average overall mshr miss latency
system.cpu.icache.overall_avg_mshr_miss_latency::cpu.inst 46840.809169                       # average overall mshr miss latency
system.cpu.icache.overall_avg_mshr_miss_latency::total 46840.809169                       # average overall mshr miss latency
system.cpu.icache.no_allocate_misses                0                       # Number of misses that were no-allocate
system.membus.trans_dist::ReadReq               72979                       # Transaction distribution
system.membus.trans_dist::ReadResp              72978                       # Transaction distribution
system.membus.trans_dist::Writeback               588                       # Transaction distribution
system.membus.trans_dist::ReadExReq               592                       # Transaction distribution
system.membus.trans_dist::ReadExResp              592                       # Transaction distribution
system.membus.pkt_count_system.cpu.icache.mem_side::system.mem_ctrls.port       145133                       # Packet count per connected master and slave (bytes)
system.membus.pkt_count_system.cpu.dcache.mem_side::system.mem_ctrls.port         2596                       # Packet count per connected master and slave (bytes)
system.membus.pkt_count::total                 147729                       # Packet count per connected master and slave (bytes)
system.membus.pkt_size_system.cpu.icache.mem_side::system.mem_ctrls.port      4644224                       # Cumulative packet size per connected master and slave (bytes)
system.membus.pkt_size_system.cpu.dcache.mem_side::system.mem_ctrls.port       101888                       # Cumulative packet size per connected master and slave (bytes)
system.membus.pkt_size::total                 4746112                       # Cumulative packet size per connected master and slave (bytes)
system.membus.snoops                                0                       # Total snoops (count)
system.membus.snoop_fanout::samples             74159                       # Request fanout histogram
system.membus.snoop_fanout::mean                    1                       # Request fanout histogram
system.membus.snoop_fanout::stdev                   0                       # Request fanout histogram
system.membus.snoop_fanout::underflows              0      0.00%      0.00% # Request fanout histogram
system.membus.snoop_fanout::0                       0      0.00%      0.00% # Request fanout histogram
system.membus.snoop_fanout::1                   74159    100.00%    100.00% # Request fanout histogram
system.membus.snoop_fanout::2                       0      0.00%    100.00% # Request fanout histogram
system.membus.snoop_fanout::overflows               0      0.00%    100.00% # Request fanout histogram
system.membus.snoop_fanout::min_value               1                       # Request fanout histogram
system.membus.snoop_fanout::max_value               1                       # Request fanout histogram
system.membus.snoop_fanout::total               74159                       # Request fanout histogram
system.membus.reqLayer0.occupancy            38255500                       # Layer occupancy (ticks)
system.membus.reqLayer0.utilization               0.9                       # Layer utilization (%)
system.membus.respLayer1.occupancy          197931750                       # Layer occupancy (ticks)
system.membus.respLayer1.utilization              4.4                       # Layer utilization (%)
system.membus.respLayer2.occupancy            2700250                       # Layer occupancy (ticks)
system.membus.respLayer2.utilization              0.1                       # Layer utilization (%)

---------- End Simulation Statistics   ----------
